<?xml version='1.0' encoding='utf-8'?>
<routes>
  <trip id="t_base_20211003_168802_21" depart="7" fromJunction="5898861252" toJunction="2916133886" />
  <trip id="t_base_20211003_510267_3" type="truck" depart="9" fromJunction="cluster_1503594210_7947221530" toJunction="cluster_5620955863_9967280109" />
  <trip id="t_base_20211003_165245_15" depart="9" fromJunction="2271288844" toJunction="5898861252" />
  <trip id="t_base_20211003_201837_1" depart="12" fromJunction="1340828626" toJunction="308934664" />
  <trip id="t_base_20211003_535894_5" depart="25" fromJunction="1417200527" toJunction="cluster_5680870339_5680870349" />
  <trip id="t_base_20211003_166343_8" depart="26" fromJunction="2579787329" toJunction="cluster_5680870339_5680870349" />
  <trip id="t_base_20211003_542840_1" depart="26" fromJunction="1182813353" toJunction="1022515415" />
  <trip id="t_base_20211003_356927_2" depart="34" fromJunction="cluster_1503594210_7947221530" toJunction="2579845692" />
  <trip id="t_base_20211003_553644_1" type="truck" depart="43" fromJunction="cluster_2287858618_2287858630_3772939196" toJunction="4782557337" />
  <trip id="t_base_20211003_475245_1" depart="53" fromJunction="530882841" toJunction="2374439661" />
  <trip id="t_base_20211003_386902_9" depart="62" fromJunction="cluster_5680870339_5680870349" toJunction="2579845692" />
  <trip id="t_base_20211003_342592_19" type="truck" depart="70" fromJunction="cluster_5620955863_9967280109" toJunction="2941850614" />
  <trip id="t_add_truck_4_26" depart="77" type="truck" from="314943854#8" to="-120298252" />
  <trip id="t_base_20211003_11657_2" depart="94" fromJunction="5478033280" toJunction="465290731" />
  <trip id="t_add_truck_13_178" depart="112" type="truck" from="-128186300#0" to="-732836013#5" />
  <trip id="t_base_20211003_361982_6" depart="116" fromJunction="cluster_1022515512_3817927292" toJunction="1417115885" />
  <trip id="t_add_truck_4_118" depart="126" type="truck" from="314943854#8" to="671408797#3" />
  <trip id="t_base_20211003_389295_2" depart="134" fromJunction="811152377" toJunction="811152377" />
  <trip id="t_base_20211003_296587_1" depart="135" fromJunction="1341142328" toJunction="7204829785" />
  <trip id="t_base_20211003_61776_6" depart="136" fromJunction="370268754" toJunction="2550126961" />
  <trip id="t_add_truck_12_52" depart="138" type="truck" from="-732836013#5" to="579798173#4" />
  <trip id="t_add_truck_11_116" depart="155" type="truck" from="120299063" to="628774981#1" />
  <trip id="t_add_truck_12_240" depart="159" type="truck" from="-732836013#5" to="-702088258#1" />
  <trip id="t_base_20211003_274311_1" depart="162" fromJunction="2551973484" toJunction="534611130" />
  <trip id="t_add_truck_9_45" depart="163" type="truck" from="475353684#3" to="314943854#4.70" />
  <trip id="t_add_truck_13_118" depart="174" type="truck" from="136369205#3" to="-732836013#5" />
  <trip id="t_base_20211003_102188_14" depart="175" fromJunction="2579845692" toJunction="5898861251" />
  <trip id="t_base_20211003_139614_3" type="truck" depart="190" fromJunction="1408485447" toJunction="cluster_10972364718_504150645" />
  <trip id="t_base_20211003_282896_2" type="truck" depart="194" fromJunction="854426593" toJunction="cluster_1503594210_7947221530" />
  <trip id="t_base_20211003_103317_1" depart="195" fromJunction="859949261" toJunction="cluster_5680870339_5680870349" />
  <trip id="t_add_truck_0_54" depart="206" type="truck" from="128185343" to="-726581848" />
  <trip id="t_add_truck_8_31" depart="207" type="truck" from="-1159532039#8" to="-314943854#4" />
  <trip id="t_base_20211003_320193_13" type="truck" depart="216" fromJunction="cluster_5620955863_9967280109" toJunction="1417040268" />
  <trip id="t_base_20211003_424085_4" depart="223" fromJunction="934214312" toJunction="1408485447" />
  <trip id="t_base_20211003_141990_1" type="truck" depart="229" fromJunction="cluster_1182815633_6737563735" toJunction="1377327382" />
  <trip id="t_base_20211003_456868_14" depart="232" fromJunction="cluster_1022515512_3817927292" toJunction="1417140268" />
  <trip id="t_add_truck_4_7" depart="235" type="truck" from="314943854#8" to="-681808726#9" />
  <trip id="t_base_20211003_453229_1" depart="241" fromJunction="1417040798" toJunction="1417069706" />
  <trip id="t_base_20211003_51814_12" depart="246" fromJunction="5478033280" toJunction="559436170" />
  <trip id="t_base_20211003_312708_1" type="truck" depart="254" fromJunction="cluster_1503594210_7947221530" toJunction="1417200527" />
  <trip id="t_base_20211003_389295_4" depart="255" fromJunction="919468500" toJunction="cluster_11840492880_11840492881" />
  <trip id="t_base_20211003_105254_1" depart="259" fromJunction="313011720" toJunction="cluster_1503594210_7947221530" />
  <trip id="t_base_20211003_517725_21" depart="271" fromJunction="1417200527" toJunction="5898861252" />
  <trip id="t_base_20211003_211333_1" depart="274" fromJunction="4453104126" toJunction="2352927498" />
  <trip id="t_add_truck_12_157" depart="276" type="truck" from="-732836013#5" to="124896249#3" />
  <trip id="t_base_20211003_470754_1" depart="280" fromJunction="cluster_1503594210_7947221530" toJunction="cluster_5620955863_9967280109" />
  <trip id="t_add_truck_6_43" depart="281" type="truck" from="-314943854#4" to="-198928908#1" />
  <trip id="t_add_truck_11_27" depart="282" type="truck" from="43433954#3" to="628774981#1" />
  <trip id="t_base_20211003_333801_15" depart="290" fromJunction="7204829785" toJunction="cluster_1503594210_7947221530" />
  <trip id="t_base_20211003_567954_3" depart="294" fromJunction="308934664" toJunction="529143487" />
  <trip id="t_base_20211003_128496_9" depart="297" fromJunction="2271288844" toJunction="cluster_5680870339_5680870349" />
  <trip id="t_base_20211003_269528_1" depart="309" fromJunction="5311013372" toJunction="1377378410" />
  <trip id="t_base_20211003_311009_17" depart="313" fromJunction="2271288844" toJunction="cluster_5680870339_5680870349" />
  <trip id="t_base_20211003_429522_1" type="truck" depart="316" fromJunction="1341142328" toJunction="cluster_309589780_6322642845" />
  <trip id="t_base_20211003_246645_10" type="truck" depart="332" fromJunction="1996446701" toJunction="944750629" />
  <trip id="t_add_truck_12_47" depart="340" type="truck" from="-732836013#5" to="-120298159#1" />
  <trip id="t_base_20211003_448080_1" depart="349" fromJunction="7204829785" toJunction="1377353901" />
  <trip id="t_add_truck_12_53" depart="358" type="truck" from="-732836013#5" to="-475353684#2" />
  <trip id="t_base_20211003_443158_1" depart="360" fromJunction="cluster_1377353709_1377353710_6857136794_6857136795" toJunction="2352927394" />
  <trip id="t_base_20211003_210853_1" depart="369" fromJunction="cluster_5680870339_5680870349" toJunction="2579787329" />
  <trip id="t_add_truck_13_150" depart="389" type="truck" from="-154323588#3" to="-732836013#5" />
  <trip id="t_base_20211003_159803_1" depart="391" fromJunction="J62" toJunction="J62" />
  <trip id="t_base_20211003_221372_1" depart="395" fromJunction="cluster_1503594210_7947221530" toJunction="1417200527" />
  <trip id="t_base_20211003_43099_2" depart="409" fromJunction="5478033280" toJunction="559436170" />
  <trip id="t_base_20211003_280522_1" depart="420" fromJunction="1417083565" toJunction="cluster_1603573683_2379684572" />
  <trip id="t_base_20211003_343324_11" depart="429" fromJunction="2271288844" toJunction="5898861252" />
  <trip id="t_base_20211003_553003_60" depart="435" fromJunction="2579787329" toJunction="cluster_1503594210_7947221530" />
  <trip id="t_base_20211003_289130_48" type="truck" depart="442" fromJunction="1417200527" toJunction="1503594276" />
  <trip id="t_base_20211003_381533_1" depart="453" fromJunction="391206660" toJunction="1417200527" />
  <trip id="t_base_20211003_521725_1" depart="463" fromJunction="4770556619" toJunction="6295316322" />
  <trip id="t_base_20211003_255518_1" depart="465" fromJunction="cluster_1417200778_1417200782" toJunction="1340941837" />
  <trip id="t_base_20211003_356182_7" depart="497" fromJunction="465290731" toJunction="1349173201" />
  <trip id="t_base_20211003_408443_11" depart="512" fromJunction="1417200527" toJunction="1496268830" />
  <trip id="t_base_20211003_27321_1" depart="514" fromJunction="309601759" toJunction="1973323651" />
  <trip id="t_base_20211003_101328_5" depart="523" fromJunction="1408485447" toJunction="5898861252" />
  <trip id="t_add_truck_5_149" depart="526" type="truck" from="-128186211#1" to="314943854#8" />
  <trip id="t_base_20211003_502014_9" depart="529" fromJunction="2579845692" toJunction="5852439298" />
  <trip id="t_base_20211003_301421_1" depart="532" fromJunction="2220182913" toJunction="1343280850" />
  <trip id="t_base_20211003_326113_29" depart="552" fromJunction="2579787329" toJunction="5898861252" />
  <trip id="t_base_20211003_387459_1" depart="556" fromJunction="3210162917" toJunction="1381530987" />
  <trip id="t_base_20211003_428666_3" depart="562" fromJunction="7204829785" toJunction="1340783909" />
  <trip id="t_base_20211003_486516_1" depart="566" fromJunction="1182814979" toJunction="1182814979" />
  <trip id="t_base_20211003_537347_1" depart="573" fromJunction="cluster_11329220393_11329220396_11329220402_313011696" toJunction="11329140220" />
  <trip id="t_base_20211003_351167_1" depart="584" fromJunction="1417200527" toJunction="1349136052" />
  <trip id="t_add_truck_11_82" depart="587" type="truck" from="89051105#0" to="628774981#1" />
  <trip id="t_base_20211003_140088_1" type="truck" depart="589" fromJunction="cluster_5680870339_5680870349" toJunction="1417200527" />
  <trip id="t_base_20211003_467328_9" depart="602" fromJunction="cluster_5620955863_9967280109" toJunction="5898861251" />
  <trip id="t_base_20211003_361394_1" depart="603" fromJunction="5672810765" toJunction="1517784587" />
  <trip id="t_base_20211003_506653_1" type="truck" depart="604" fromJunction="J55" toJunction="cluster_5620955863_9967280109" />
  <trip id="t_base_20211003_478400_33" depart="613" fromJunction="1996446701" toJunction="cluster_1547254940_917788315" />
  <trip id="t_base_20211003_102128_1" depart="616" fromJunction="547565945" toJunction="1022516423" />
  <trip id="t_add_truck_6_35" depart="619" type="truck" from="-314943854#4" to="88221885#3" />
  <trip id="t_base_20211003_183669_1" type="truck" depart="620" fromJunction="2374470979" toJunction="1378094343" />
  <trip id="t_base_20211003_459588_1" type="truck" depart="625" fromJunction="2391362885" toJunction="718511086" />
  <trip id="t_base_20211003_117867_4" depart="632" fromJunction="1417200527" toJunction="cluster_1503594210_7947221530" />
  <trip id="t_base_20211003_288243_1" depart="644" fromJunction="2338878542" toJunction="cluster_1408533041_1874057128" />
  <trip id="t_add_truck_11_70" depart="645" type="truck" from="124771683#1" to="628774981#1" />
  <trip id="t_base_20211003_431245_1" depart="651" fromJunction="529149177" toJunction="1343317685" />
  <trip id="t_add_truck_8_22" depart="661" type="truck" from="-68424002#5" to="-314943854#4" />
  <trip id="t_base_20211003_208900_1" depart="666" fromJunction="6657395739" toJunction="6657395739" />
  <trip id="t_add_truck_9_44" depart="671" type="truck" from="72413391#4" to="314943854#4.70" />
  <trip id="t_base_20211003_224897_11" depart="688" fromJunction="2374470979" toJunction="6108215125" />
  <trip id="t_base_20211003_316369_1" depart="690" fromJunction="cluster_1503594210_7947221530" toJunction="2579845692" />
  <trip id="t_base_20211003_214786_2" depart="697" fromJunction="2271288844" toJunction="cluster_3756601742_5716423965" />
  <trip id="t_base_20211003_249780_8" depart="700" fromJunction="cluster_10797200637_10797200733_10797200862_10797200863_#6more" toJunction="2338936198" />
  <trip id="t_base_20211003_258111_16" depart="709" fromJunction="1417200527" toJunction="cluster_1503594210_7947221530" />
  <trip id="t_base_20211003_314504_2" depart="714" fromJunction="cluster_5680870339_5680870349" toJunction="1189275695" />
  <trip id="t_base_20211003_321395_1" depart="725" fromJunction="1417200527" toJunction="4328731710" />
  <trip id="t_base_20211003_81613_1" depart="769" fromJunction="370268754" toJunction="5566359036" />
  <trip id="t_base_20211003_542840_2" depart="781" fromJunction="cluster_1417139681_6317886441" toJunction="cluster_2381951322_3606284654_3606284662_718511102_#8more" />
  <trip id="t_base_20211003_484319_24" depart="790" fromJunction="cluster_2271305121_9967280117" toJunction="cluster_1503594210_7947221530" />
  <trip id="t_base_20211003_178186_9" depart="793" fromJunction="2579787329" toJunction="cluster_1503594210_7947221530" />
  <trip id="t_base_20211003_130014_1" depart="797" fromJunction="9690892413" toJunction="1275992635" />
  <trip id="t_add_truck_4_101" depart="814" type="truck" from="314943854#8" to="188332320#1" />
  <trip id="t_base_20211003_345960_3" depart="819" fromJunction="cluster_10294734213_10294734218_10294734223_10294734224_#3more" toJunction="cluster_1182816068_6581853919" />
  <trip id="t_base_20211003_472067_1" depart="841" fromJunction="811470100" toJunction="614599127" />
  <trip id="t_base_20211003_108068_2" depart="843" fromJunction="cluster_1503594210_7947221530" toJunction="cluster_5620955863_9967280109" />
  <trip id="t_base_20211003_106634_3" depart="879" fromJunction="1417200527" toJunction="cluster_5680870339_5680870349" />
  <trip id="t_add_truck_13_187" depart="887" type="truck" from="448275994#1" to="-732836013#5" />
  <trip id="t_base_20211003_169231_1" depart="896" fromJunction="cluster_1417139681_6317886441" toJunction="1189275695" />
  <trip id="t_base_20211003_507053_1" depart="898" fromJunction="1417200527" toJunction="cluster_1503594210_7947221530" />
  <trip id="t_base_20211003_466336_5" depart="898" fromJunction="2271288844" toJunction="5898861250" />
  <trip id="t_base_20211003_507423_15" depart="901" fromJunction="1996446701" toJunction="1182816332" />
  <trip id="t_add_truck_4_64" depart="922" type="truck" from="314943854#8" to="-581624581#28" />
  <trip id="t_base_20211003_212967_11" depart="923" fromJunction="2374470979" toJunction="cluster_1496268571_8015353911" />
  <trip id="t_base_20211003_338303_6" depart="952" fromJunction="1417200527" toJunction="10784499818" />
  <trip id="t_base_20211003_258039_1" depart="954" fromJunction="1340930106" toJunction="cluster_3756601742_5716423965" />
  <trip id="t_base_20211003_392985_13" depart="956" fromJunction="7204829785" toJunction="cluster_5680870339_5680870349" />
  <trip id="t_add_truck_5_47" depart="1007" type="truck" from="637712222#1" to="314943854#8" />
  <trip id="t_base_20211003_269031_1" depart="1011" fromJunction="1417158252" toJunction="1417200527" />
  <trip id="t_add_truck_0_3" depart="1016" type="truck" from="128185343" to="1190203720#2" />
  <trip id="t_base_20211003_417591_3" depart="1026" fromJunction="2271288844" toJunction="1377378410" />
  <trip id="t_base_20211003_515468_10" depart="1029" fromJunction="1408485447" toJunction="10784499818" />
  <trip id="t_base_20211003_178132_1" depart="1037" fromJunction="cluster_2350129459_2350129506" toJunction="J74" />
  <trip id="t_base_20211003_181026_6" type="truck" depart="1041" fromJunction="1408485447" toJunction="5898861251" />
  <trip id="t_add_truck_6_47" depart="1058" type="truck" from="-314943854#4" to="601450454" />
  <trip id="t_base_20211003_256571_1" depart="1066" fromJunction="cluster_1503594210_7947221530" toJunction="1417200527" />
  <trip id="t_base_20211003_555806_2" depart="1073" fromJunction="1417200527" toJunction="1496268821" />
  <trip id="t_base_20211003_137529_2" type="truck" depart="1079" fromJunction="1503594276" toJunction="1417200527" />
  <trip id="t_base_20211003_502371_1" depart="1079" fromJunction="1815738556" toJunction="cluster_5620955863_9967280109" />
  <trip id="t_base_20211003_276352_5" depart="1086" fromJunction="1996446701" toJunction="cluster_1500767432_6668959405" />
  <trip id="t_base_20211003_280571_7" depart="1087" fromJunction="2579787329" toJunction="1503594925" />
  <trip id="t_add_truck_11_112" depart="1089" type="truck" from="475871266#14" to="628774981#1" />
  <trip id="t_base_20211003_101566_19" depart="1092" fromJunction="cluster_5620955863_9967280109" toJunction="1417040268" />
  <trip id="t_base_20211003_387951_23" depart="1117" fromJunction="1996446701" toJunction="1377378410" />
  <trip id="t_base_20211003_189666_2" depart="1117" fromJunction="1342344902" toJunction="1189275695" />
  <trip id="t_add_truck_11_54" depart="1125" type="truck" from="-124896252#0" to="628774981#1" />
  <trip id="t_base_20211003_188387_1" type="truck" depart="1134" fromJunction="746491115" toJunction="2378857141" />
  <trip id="t_base_20211003_196081_1" depart="1134" fromJunction="1815738572" toJunction="cluster_5620955863_9967280109" />
  <trip id="t_base_20211003_324343_4" depart="1137" fromJunction="2339979349" toJunction="J76" />
  <trip id="t_base_20211003_370073_90" type="truck" depart="1139" fromJunction="2579845692" toJunction="5898861252" />
  <trip id="t_add_truck_12_83" depart="1140" type="truck" from="-732836013#5" to="-773694425#0" />
  <trip id="t_base_20211003_401910_1" depart="1141" fromJunction="10784499818" toJunction="7204829785" />
  <trip id="t_add_truck_2_23" depart="1150" type="truck" from="88221882#5" to="128185343" />
  <trip id="t_base_20211003_483192_1" depart="1152" fromJunction="4736453510" toJunction="cluster_1974852033_6317771799" />
  <trip id="t_base_20211003_120123_1" type="truck" depart="1158" fromJunction="1349176194" toJunction="7204829785" />
  <trip id="t_base_20211003_377249_1" depart="1162" fromJunction="cluster_1406756381_1406756392" toJunction="308934664" />
  <trip id="t_base_20211003_504544_1" type="truck" depart="1164" fromJunction="1064975455" toJunction="1187208806" />
  <trip id="t_base_20211003_596419_1" depart="1174" fromJunction="2550132181" toJunction="529143487" />
  <trip id="t_add_truck_7_11" depart="1177" type="truck" from="314943854#4.70" to="-475877442#0" />
  <trip id="t_base_20211003_130208_2" depart="1182" fromJunction="2579787329" toJunction="5898861250" />
  <trip id="t_base_20211003_422903_2" type="truck" depart="1197" fromJunction="1377318677" toJunction="1417084049" />
  <trip id="t_base_20211003_538630_1" type="truck" depart="1204" fromJunction="cluster_1503594210_7947221530" toJunction="2663068630" />
  <trip id="t_base_20211003_136011_1" type="truck" depart="1205" fromJunction="547803688" toJunction="1408485447" />
  <trip id="t_add_truck_12_96" depart="1207" type="truck" from="-732836013#5" to="89051102#2" />
  <trip id="t_base_20211003_198065_3" type="truck" depart="1209" fromJunction="2306153120" toJunction="953662690" />
  <trip id="t_add_truck_6_58" depart="1239" type="truck" from="-314943854#4" to="120298653#6" />
  <trip id="t_base_20211003_189332_1" type="truck" depart="1246" fromJunction="1417200527" toJunction="4695571099" />
  <trip id="t_base_20211003_510983_1" type="truck" depart="1255" fromJunction="4697576946" toJunction="7204829785" />
  <trip id="t_base_20211003_372594_1" depart="1256" fromJunction="cluster_5647162340_934193953" toJunction="1417164500" />
  <trip id="t_base_20211003_385790_1" depart="1257" fromJunction="559436170" toJunction="1189275695" />
  <trip id="t_base_20211003_387966_1" depart="1266" fromJunction="cluster_2916223196_2916223197" toJunction="2579787329" />
  <trip id="t_base_20211003_596430_2" depart="1278" fromJunction="5898861250" toJunction="1189275695" />
  <trip id="t_base_20211003_482658_2" depart="1279" fromJunction="10784499817" toJunction="1285943374" />
  <trip id="t_base_20211003_154648_3" depart="1281" fromJunction="cluster_2271305121_9967280117" toJunction="cluster_1503594210_7947221530" />
  <trip id="t_base_20211003_334490_1" depart="1281" fromJunction="2271288844" toJunction="cluster_1503594210_7947221530" />
  <trip id="t_add_truck_11_52" depart="1283" type="truck" from="-288032711" to="628774981#1" />
  <trip id="t_base_20211003_517998_1" depart="1287" fromJunction="10784499815" toJunction="1417200527" />
  <trip id="t_base_20211003_335912_1" type="truck" depart="1303" fromJunction="1377353901" toJunction="7204829785" />
  <trip id="t_add_truck_13_240" depart="1306" type="truck" from="487782456#1" to="-732836013#5" />
  <trip id="t_add_truck_12_78" depart="1307" type="truck" from="-732836013#5" to="715282147#7" />
  <trip id="t_base_20211003_199839_15" depart="1319" fromJunction="2579845692" toJunction="5898861251" />
  <trip id="t_add_truck_3_32" depart="1324" type="truck" from="682026106" to="1231325634#1" />
  <trip id="t_base_20211003_188992_3" depart="1328" fromJunction="1343279452" toJunction="1187207260" />
  <trip id="t_base_20211003_544328_1" depart="1331" fromJunction="1285943446" toJunction="1381335022" />
  <trip id="t_base_20211003_416985_2" type="truck" depart="1332" fromJunction="cluster_1503594210_7947221530" toJunction="1492355320" />
  <trip id="t_base_20211003_224634_1" depart="1335" fromJunction="1417200527" toJunction="cluster_1503594210_7947221530" />
  <trip id="t_base_20211003_329453_1" depart="1335" fromJunction="1996446701" toJunction="7774925683" />
  <trip id="t_base_20211003_258323_1" depart="1341" fromJunction="cluster_5620955863_9967280109" toJunction="cluster_1503594210_7947221530" />
  <trip id="t_base_20211003_403924_1" type="truck" depart="1346" fromJunction="cluster_5620955863_9967280109" toJunction="cluster_1503594210_7947221530" />
  <trip id="t_base_20211003_442327_1" type="truck" depart="1349" fromJunction="1996446701" toJunction="809908706" />
  <trip id="t_base_20211003_210280_1" type="truck" depart="1354" fromJunction="5802773401" toJunction="cluster_2271305121_9967280117" />
  <trip id="t_base_20211003_104225_2" depart="1362" fromJunction="5898861250" toJunction="859949261" />
  <trip id="t_add_truck_12_195" depart="1381" type="truck" from="-732836013#5" to="732835979#5" />
  <trip id="t_base_20211003_364584_8" depart="1402" fromJunction="853136856" toJunction="4770556600" />
  <trip id="t_base_20211003_261105_1" depart="1419" fromJunction="919468500" toJunction="9920126636" />
  <trip id="t_add_truck_5_55" depart="1435" type="truck" from="-81050162#14" to="314943854#8" />
  <trip id="t_base_20211003_500641_1" depart="1436" fromJunction="1342346660" toJunction="5866620769" />
  <trip id="t_base_20211003_249975_2" depart="1439" fromJunction="cluster_1503594210_7947221530" toJunction="cluster_5620955863_9967280109" />
  <trip id="t_base_20211003_110061_1" type="truck" depart="1445" fromJunction="2579845692" toJunction="5852439298" />
  <trip id="t_base_20211003_155270_2" type="truck" depart="1464" fromJunction="cluster_5620955863_9967280109" toJunction="5898861250" />
  <trip id="t_base_20211003_395090_1" depart="1468" fromJunction="1340928878" toJunction="7204829785" />
  <trip id="t_base_20211003_207979_1" depart="1471" fromJunction="2374470975" toJunction="3191939907" />
  <trip id="t_base_20211003_506943_1" depart="1472" fromJunction="cluster_10983358975_10983358976_504150659_504150677_#1more" toJunction="2579845692" />
  <trip id="t_add_truck_13_158" depart="1481" type="truck" from="-188332357#4" to="-732836013#5" />
  <trip id="t_base_20211003_223217_1" type="truck" depart="1493" fromJunction="530882841" toJunction="1408485447" />
  <trip id="t_base_20211003_532398_1" depart="1505" fromJunction="1408485447" toJunction="5612970922" />
  <trip id="t_base_20211003_451118_5" type="truck" depart="1519" fromJunction="10784499817" toJunction="6108215125" />
  <trip id="t_base_20211003_90032_6" depart="1535" fromJunction="308934664" toJunction="529143487" />
  <trip id="t_add_truck_13_113" depart="1538" type="truck" from="776215984#6" to="-732836013#5" />
  <trip id="t_add_truck_3_14" depart="1542" type="truck" from="73544667#1" to="1231325634#1" />
  <trip id="t_add_truck_5_246" depart="1560" type="truck" from="-128185363#4" to="314943854#8" />
  <trip id="t_base_20211003_156281_2" depart="1562" fromJunction="cluster_1503594210_7947221530" toJunction="1189275695" />
  <trip id="t_base_20211003_276352_6" depart="1571" fromJunction="2366810668" toJunction="1377353901" />
  <trip id="t_base_20211003_500404_1" type="truck" depart="1587" fromJunction="cluster_5620955863_9967280109" toJunction="1182813353" />
  <trip id="t_add_truck_12_238" depart="1589" type="truck" from="-732836013#5" to="123552000#4" />
  <trip id="t_add_truck_5_0" depart="1591" type="truck" from="128185363#2" to="314943854#8" />
  <trip id="t_base_20211003_23622_1" depart="1594" fromJunction="370268754" toJunction="308934664" />
  <trip id="t_base_20211003_102622_2" type="truck" depart="1599" fromJunction="1996446701" toJunction="5579752000" />
  <trip id="t_base_20211003_401944_1" depart="1610" fromJunction="2550132181" toJunction="308934664" />
  <trip id="t_base_20211003_102146_5" depart="1635" fromJunction="1996446701" toJunction="745632762" />
  <trip id="t_add_truck_4_133" depart="1645" type="truck" from="314943854#8" to="589353016#14" />
  <trip id="t_add_truck_10_74" depart="1651" type="truck" from="628774981#1" to="871541472#13" />
  <trip id="t_base_20211003_261602_1" depart="1679" fromJunction="cluster_1022515512_3817927292" toJunction="cluster_4453077963_934179305" />
  <trip id="t_base_20211003_313093_1" depart="1691" fromJunction="1417200527" toJunction="1503594276" />
  <trip id="t_base_20211003_101388_1" depart="1692" fromJunction="1340930106" toJunction="7204829785" />
  <trip id="t_base_20211003_285301_1" type="truck" depart="1693" fromJunction="9789802333" toJunction="cluster_5620955863_9967280109" />
  <trip id="t_base_20211003_218241_1" depart="1706" fromJunction="504753787" toJunction="1189275695" />
  <trip id="t_add_truck_12_86" depart="1708" type="truck" from="-732836013#5" to="-138422735#3" />
  <trip id="t_base_20211003_103972_1" depart="1710" fromJunction="cluster_1340990489_4782557331" toJunction="11061841980" />
  <trip id="t_base_20211003_346110_1" depart="1717" fromJunction="1341042518" toJunction="1992672791" />
  <trip id="t_base_20211003_408463_1" depart="1742" fromJunction="1417200527" toJunction="1417062565" />
  <trip id="t_base_20211003_102188_1" depart="1750" fromJunction="cluster_1503594210_7947221530" toJunction="1417139866" />
  <trip id="t_add_truck_4_183" depart="1759" type="truck" from="314943854#8" to="-376542860#11" />
  <trip id="t_base_20211003_539522_1" depart="1781" fromJunction="391206660" toJunction="1417200527" />
  <trip id="t_base_20211003_252489_3" depart="1787" fromJunction="cluster_1503594210_7947221530" toJunction="cluster_1064977901_504755508" />
  <trip id="t_base_20211003_26059_1" type="truck" depart="1789" fromJunction="308934664" toJunction="4248960562" />
  <trip id="t_add_truck_1_2" depart="1802" type="truck" from="1231325634#1" to="1182814945#9" />
  <trip id="t_base_20211003_157861_1" depart="1809" fromJunction="4328731698" toJunction="7204829785" />
  <trip id="t_add_truck_13_259" depart="1813" type="truck" from="483048367" to="-732836013#5" />
  <trip id="t_base_20211003_564261_2" depart="1828" fromJunction="559436170" toJunction="5478033279" />
  <trip id="t_base_20211003_318210_1" depart="1847" fromJunction="cluster_1022515512_3817927292" toJunction="1341141501" />
  <trip id="t_base_20211003_120320_1" depart="1847" fromJunction="1815738572" toJunction="1815738572" />
  <trip id="t_base_20211003_399816_11" depart="1854" fromJunction="cluster_5620955863_9967280109" toJunction="5898861251" />
  <trip id="t_base_20211003_435442_1" depart="1866" fromJunction="11061841979" toJunction="4782557337" />
  <trip id="t_base_20211003_121948_9" type="truck" depart="1873" fromJunction="1408485447" toJunction="2366961649" />
  <trip id="t_base_20211003_116663_2" depart="1874" fromJunction="2271288844" toJunction="2941850614" />
  <trip id="t_base_20211003_527650_3" type="truck" depart="1891" fromJunction="360704883" toJunction="cluster_1955925657_2374470976" />
  <trip id="t_base_20211003_101895_4" type="truck" depart="1895" fromJunction="9728298857" toJunction="cluster_1406756764_1409997809" />
  <trip id="t_base_20211003_453229_2" depart="1895" fromJunction="1517784598" toJunction="cluster_1341178588_4777123729" />
  <trip id="t_base_20211003_424709_1" depart="1895" fromJunction="cluster_5620955863_9967280109" toJunction="cluster_11662327527_1503594335" />
  <trip id="t_add_truck_11_29" depart="1898" type="truck" from="-120299108#5" to="628774981#1" />
  <trip id="t_base_20211003_254381_1" depart="1899" fromJunction="cluster_5620955863_9967280109" toJunction="cluster_1349174564_6384912859" />
  <trip id="t_base_20211003_373691_1" depart="1909" fromJunction="1349134530" toJunction="1349134530" />
  <trip id="t_base_20211003_510808_5" type="truck" depart="1916" fromJunction="cluster_5620955863_9967280109" toJunction="5898861250" />
  <trip id="t_add_truck_13_269" depart="1920" type="truck" from="1149402057#0" to="-732836013#5" />
  <trip id="t_base_20211003_512566_1" type="truck" depart="1921" fromJunction="853129758" toJunction="1341141319" />
  <trip id="t_add_truck_5_220" depart="1925" type="truck" from="1231325634#1" to="314943854#8" />
  <trip id="t_add_truck_12_37" depart="1932" type="truck" from="-732836013#5" to="-77075399" />
  <trip id="t_base_20211003_479120_1" depart="1936" fromJunction="2354314671" toJunction="9503800944" />
  <trip id="t_base_20211003_587611_1" depart="1938" fromJunction="1408485447" toJunction="5898861250" />
  <trip id="t_add_truck_6_74" depart="1969" type="truck" from="-314943854#4" to="138697443#2" />
  <trip id="t_base_20211003_120265_3" type="truck" depart="1972" fromJunction="2550132181" toJunction="308934664" />
  <trip id="t_base_20211003_149114_1" depart="1979" fromJunction="cluster_5620955863_9967280109" toJunction="809892148" />
  <trip id="t_add_truck_5_120" depart="1980" type="truck" from="-192389522#1" to="314943854#8" />