<?xml version='1.0' encoding='utf-8'?>
<routes>
  <trip id="t_20211003_168802_21" depart="7" fromJunction="5898861252" toJunction="2916133886" />
  <trip id="t_20211003_510267_3" type="truck" depart="9" fromJunction="cluster_1503594210_7947221530" toJunction="cluster_5620955863_9967280109" />
  <trip id="t_20211003_165245_15" depart="9" fromJunction="2271288844" toJunction="5898861252" />
  <trip id="t_20211003_201837_1" depart="12" fromJunction="1340828626" toJunction="308934664" />
  <trip id="t_20211003_535894_5" depart="25" fromJunction="1417200527" toJunction="cluster_5680870339_5680870349" />
  <trip id="t_20211003_166343_8" depart="26" fromJunction="2579787329" toJunction="cluster_5680870339_5680870349" />
  <trip id="t_20211003_356927_2" depart="34" fromJunction="cluster_1503594210_7947221530" toJunction="2579845692" />
  <trip id="t_20211003_475245_1" depart="53" fromJunction="530882841" toJunction="2374439661" />
  <trip id="t_20211003_386902_9" depart="62" fromJunction="cluster_5680870339_5680870349" toJunction="2579845692" />
  <trip id="t_20211003_342592_19" type="truck" depart="70" fromJunction="cluster_5620955863_9967280109" toJunction="2941850614" />
  <trip id="t_20211003_361982_6" depart="116" fromJunction="cluster_1022515512_3817927292" toJunction="1417115885" />
  <trip id="t_20211003_296587_1" depart="135" fromJunction="1341142328" toJunction="7204829785" />
  <trip id="t_20211003_61776_6" depart="136" fromJunction="370268754" toJunction="2550126961" />
  <trip id="t_20211003_102188_14" depart="175" fromJunction="2579845692" toJunction="5898861251" />
  <trip id="t_20211003_139614_3" type="truck" depart="190" fromJunction="1408485447" toJunction="cluster_10972364718_504150645" />
  <trip id="t_20211003_103317_1" depart="195" fromJunction="859949261" toJunction="cluster_5680870339_5680870349" />
  <trip id="t_20211003_141990_1" type="truck" depart="229" fromJunction="cluster_1182815633_6737563735" toJunction="1377327382" />
  <trip id="t_20211003_456868_14" depart="232" fromJunction="cluster_1022515512_3817927292" toJunction="1417140268" />
  <trip id="t_20211003_453229_1" depart="241" fromJunction="1417040798" toJunction="1417069706" />
  <trip id="t_20211003_51814_12" depart="246" fromJunction="5478033280" toJunction="559436170" />
  <trip id="t_20211003_312708_1" type="truck" depart="254" fromJunction="cluster_1503594210_7947221530" toJunction="1417200527" />
  <trip id="t_20211003_105254_1" depart="259" fromJunction="313011720" toJunction="cluster_1503594210_7947221530" />
  <trip id="t_20211003_517725_21" depart="271" fromJunction="1417200527" toJunction="5898861252" />
  <trip id="t_20211003_211333_1" depart="274" fromJunction="4453104126" toJunction="2352927498" />
  <trip id="t_20211003_470754_1" depart="280" fromJunction="cluster_1503594210_7947221530" toJunction="cluster_5620955863_9967280109" />
  <trip id="t_20211003_567954_3" depart="294" fromJunction="308934664" toJunction="529143487" />
  <trip id="t_20211003_128496_9" depart="297" fromJunction="2271288844" toJunction="cluster_5680870339_5680870349" />
  <trip id="t_20211003_269528_1" depart="309" fromJunction="5311013372" toJunction="1377378410" />
  <trip id="t_20211003_311009_17" depart="313" fromJunction="2271288844" toJunction="cluster_5680870339_5680870349" />
  <trip id="t_20211003_246645_10" type="truck" depart="332" fromJunction="1996446701" toJunction="944750629" />
  <trip id="t_20211003_443158_1" depart="360" fromJunction="cluster_1377353709_1377353710_6857136794_6857136795" toJunction="2352927394" />
  <trip id="t_20211003_210853_1" depart="369" fromJunction="cluster_5680870339_5680870349" toJunction="2579787329" />
  <trip id="t_20211003_159803_1" depart="391" fromJunction="J62" toJunction="J62" />
  <trip id="t_20211003_221372_1" depart="395" fromJunction="cluster_1503594210_7947221530" toJunction="1417200527" />
  <trip id="t_20211003_43099_2" depart="409" fromJunction="5478033280" toJunction="559436170" />
  <trip id="t_20211003_280522_1" depart="420" fromJunction="1417083565" toJunction="cluster_1603573683_2379684572" />
  <trip id="t_20211003_343324_11" depart="429" fromJunction="2271288844" toJunction="5898861252" />
  <trip id="t_20211003_553003_60" depart="435" fromJunction="2579787329" toJunction="cluster_1503594210_7947221530" />
  <trip id="t_20211003_289130_48" type="truck" depart="442" fromJunction="1417200527" toJunction="1503594276" />
  <trip id="t_20211003_381533_1" depart="453" fromJunction="391206660" toJunction="1417200527" />
  <trip id="t_20211003_521725_1" depart="463" fromJunction="4770556619" toJunction="6295316322" />
  <trip id="t_20211003_255518_1" depart="465" fromJunction="cluster_1417200778_1417200782" toJunction="1340941837" />
  <trip id="t_20211003_356182_7" depart="497" fromJunction="465290731" toJunction="1349173201" />
  <trip id="t_20211003_408443_11" depart="512" fromJunction="1417200527" toJunction="1496268830" />
  <trip id="t_20211003_27321_1" depart="514" fromJunction="309601759" toJunction="1973323651" />
  <trip id="t_20211003_101328_5" depart="523" fromJunction="1408485447" toJunction="5898861252" />
  <trip id="t_20211003_326113_29" depart="552" fromJunction="2579787329" toJunction="5898861252" />
  <trip id="t_20211003_387459_1" depart="556" fromJunction="3210162917" toJunction="1381530987" />
  <trip id="t_20211003_486516_1" depart="566" fromJunction="1182814979" toJunction="1182814979" />
  <trip id="t_20211003_351167_1" depart="584" fromJunction="1417200527" toJunction="1349136052" />
  <trip id="t_20211003_140088_1" type="truck" depart="589" fromJunction="cluster_5680870339_5680870349" toJunction="1417200527" />
  <trip id="t_20211003_506653_1" type="truck" depart="604" fromJunction="J55" toJunction="cluster_5620955863_9967280109" />
  <trip id="t_20211003_478400_33" depart="613" fromJunction="1996446701" toJunction="cluster_1547254940_917788315" />
  <trip id="t_20211003_183669_1" type="truck" depart="620" fromJunction="2374470979" toJunction="1378094343" />
  <trip id="t_20211003_459588_1" type="truck" depart="625" fromJunction="2391362885" toJunction="718511086" />
  <trip id="t_20211003_288243_1" depart="644" fromJunction="2338878542" toJunction="cluster_1408533041_1874057128" />
  <trip id="t_20211003_208900_1" depart="666" fromJunction="6657395739" toJunction="6657395739" />
  <trip id="t_20211003_224897_11" depart="688" fromJunction="2374470979" toJunction="6108215125" />
  <trip id="t_20211003_214786_2" depart="697" fromJunction="2271288844" toJunction="cluster_3756601742_5716423965" />
  <trip id="t_20211003_249780_8" depart="700" fromJunction="cluster_10797200637_10797200733_10797200862_10797200863_#6more" toJunction="2338936198" />
  <trip id="t_20211003_258111_16" depart="709" fromJunction="1417200527" toJunction="cluster_1503594210_7947221530" />
  <trip id="t_20211003_314504_2" depart="714" fromJunction="cluster_5680870339_5680870349" toJunction="1189275695" />
  <trip id="t_20211003_321395_1" depart="725" fromJunction="1417200527" toJunction="4328731710" />
  <trip id="t_20211003_81613_1" depart="769" fromJunction="370268754" toJunction="5566359036" />
  <trip id="t_20211003_542840_2" depart="781" fromJunction="cluster_1417139681_6317886441" toJunction="cluster_2381951322_3606284654_3606284662_718511102_#8more" />
  <trip id="t_20211003_484319_24" depart="790" fromJunction="cluster_2271305121_9967280117" toJunction="cluster_1503594210_7947221530" />
  <trip id="t_20211003_130014_1" depart="797" fromJunction="9690892413" toJunction="1275992635" />
  <trip id="t_20211003_472067_1" depart="841" fromJunction="811470100" toJunction="614599127" />
  <trip id="t_20211003_108068_2" depart="843" fromJunction="cluster_1503594210_7947221530" toJunction="cluster_5620955863_9967280109" />
  <trip id="t_20211003_106634_3" depart="879" fromJunction="1417200527" toJunction="cluster_5680870339_5680870349" />
  <trip id="t_20211003_169231_1" depart="896" fromJunction="cluster_1417139681_6317886441" toJunction="1189275695" />
  <trip id="t_20211003_507053_1" depart="898" fromJunction="1417200527" toJunction="cluster_1503594210_7947221530" />
  <trip id="t_20211003_466336_5" depart="898" fromJunction="2271288844" toJunction="5898861250" />
  <trip id="t_20211003_507423_15" depart="901" fromJunction="1996446701" toJunction="1182816332" />
  <trip id="t_20211003_338303_6" depart="952" fromJunction="1417200527" toJunction="10784499818" />
  <trip id="t_20211003_258039_1" depart="954" fromJunction="1340930106" toJunction="cluster_3756601742_5716423965" />
  <trip id="t_20211003_392985_13" depart="956" fromJunction="7204829785" toJunction="cluster_5680870339_5680870349" />
  <trip id="t_20211003_269031_1" depart="1011" fromJunction="1417158252" toJunction="1417200527" />
  <trip id="t_20211003_417591_3" depart="1026" fromJunction="2271288844" toJunction="1377378410" />
  <trip id="t_20211003_178132_1" depart="1037" fromJunction="cluster_2350129459_2350129506" toJunction="J74" />
  <trip id="t_20211003_181026_6" type="truck" depart="1041" fromJunction="1408485447" toJunction="5898861251" />
  <trip id="t_20211003_555806_2" depart="1073" fromJunction="1417200527" toJunction="1496268821" />
  <trip id="t_20211003_137529_2" type="truck" depart="1079" fromJunction="1503594276" toJunction="1417200527" />
  <trip id="t_20211003_101566_19" depart="1092" fromJunction="cluster_5620955863_9967280109" toJunction="1417040268" />
  <trip id="t_20211003_387951_23" depart="1117" fromJunction="1996446701" toJunction="1377378410" />
  <trip id="t_20211003_188387_1" type="truck" depart="1134" fromJunction="746491115" toJunction="2378857141" />
  <trip id="t_20211003_196081_1" depart="1134" fromJunction="1815738572" toJunction="cluster_5620955863_9967280109" />
  <trip id="t_20211003_324343_4" depart="1137" fromJunction="2339979349" toJunction="J76" />
  <trip id="t_20211003_120123_1" type="truck" depart="1158" fromJunction="1349176194" toJunction="7204829785" />
  <trip id="t_20211003_377249_1" depart="1162" fromJunction="cluster_1406756381_1406756392" toJunction="308934664" />
  <trip id="t_20211003_504544_1" type="truck" depart="1164" fromJunction="1064975455" toJunction="1187208806" />
  <trip id="t_20211003_596419_1" depart="1174" fromJunction="2550132181" toJunction="529143487" />
  <trip id="t_20211003_130208_2" depart="1182" fromJunction="2579787329" toJunction="5898861250" />
  <trip id="t_20211003_538630_1" type="truck" depart="1204" fromJunction="cluster_1503594210_7947221530" toJunction="2663068630" />
  <trip id="t_20211003_136011_1" type="truck" depart="1205" fromJunction="547803688" toJunction="1408485447" />
  <trip id="t_20211003_198065_3" type="truck" depart="1209" fromJunction="2306153120" toJunction="953662690" />
  <trip id="t_20211003_510983_1" type="truck" depart="1255" fromJunction="4697576946" toJunction="7204829785" />
  <trip id="t_20211003_372594_1" depart="1256" fromJunction="cluster_5647162340_934193953" toJunction="1417164500" />
  <trip id="t_20211003_385790_1" depart="1257" fromJunction="559436170" toJunction="1189275695" />
  <trip id="t_20211003_596430_2" depart="1278" fromJunction="5898861250" toJunction="1189275695" />
  <trip id="t_20211003_482658_2" depart="1279" fromJunction="10784499817" toJunction="1285943374" />
  <trip id="t_20211003_334490_1" depart="1281" fromJunction="2271288844" toJunction="cluster_1503594210_7947221530" />
  <trip id="t_20211003_154648_3" depart="1281" fromJunction="cluster_2271305121_9967280117" toJunction="cluster_1503594210_7947221530" />
  <trip id="t_20211003_517998_1" depart="1287" fromJunction="10784499815" toJunction="1417200527" />
  <trip id="t_20211003_335912_1" type="truck" depart="1303" fromJunction="1377353901" toJunction="7204829785" />
  <trip id="t_20211003_199839_15" depart="1319" fromJunction="2579845692" toJunction="5898861251" />
  <trip id="t_20211003_188992_3" depart="1328" fromJunction="1343279452" toJunction="1187207260" />
  <trip id="t_20211003_416985_2" type="truck" depart="1332" fromJunction="cluster_1503594210_7947221530" toJunction="1492355320" />
  <trip id="t_20211003_224634_1" depart="1335" fromJunction="1417200527" toJunction="cluster_1503594210_7947221530" />
  <trip id="t_20211003_258323_1" depart="1341" fromJunction="cluster_5620955863_9967280109" toJunction="cluster_1503594210_7947221530" />
  <trip id="t_20211003_442327_1" type="truck" depart="1349" fromJunction="1996446701" toJunction="809908706" />
  <trip id="t_20211003_364584_8" depart="1402" fromJunction="853136856" toJunction="4770556600" />
  <trip id="t_20211003_261105_1" depart="1419" fromJunction="919468500" toJunction="9920126636" />
  <trip id="t_20211003_500641_1" depart="1436" fromJunction="1342346660" toJunction="5866620769" />
  <trip id="t_20211003_249975_2" depart="1439" fromJunction="cluster_1503594210_7947221530" toJunction="cluster_5620955863_9967280109" />
  <trip id="t_20211003_110061_1" type="truck" depart="1445" fromJunction="2579845692" toJunction="5852439298" />
  <trip id="t_20211003_395090_1" depart="1468" fromJunction="1340928878" toJunction="7204829785" />
  <trip id="t_20211003_207979_1" depart="1471" fromJunction="2374470975" toJunction="3191939907" />
  <trip id="t_20211003_506943_1" depart="1472" fromJunction="cluster_10983358975_10983358976_504150659_504150677_#1more" toJunction="2579845692" />
  <trip id="t_20211003_223217_1" type="truck" depart="1493" fromJunction="530882841" toJunction="1408485447" />
  <trip id="t_20211003_532398_1" depart="1505" fromJunction="1408485447" toJunction="5612970922" />
  <trip id="t_20211003_451118_5" type="truck" depart="1519" fromJunction="10784499817" toJunction="6108215125" />
  <trip id="t_20211003_90032_6" depart="1535" fromJunction="308934664" toJunction="529143487" />
  <trip id="t_20211003_156281_2" depart="1562" fromJunction="cluster_1503594210_7947221530" toJunction="1189275695" />
  <trip id="t_20211003_276352_6" depart="1571" fromJunction="2366810668" toJunction="1377353901" />
  <trip id="t_20211003_500404_1" type="truck" depart="1587" fromJunction="cluster_5620955863_9967280109" toJunction="1182813353" />
  <trip id="t_20211003_23622_1" depart="1594" fromJunction="370268754" toJunction="308934664" />
  <trip id="t_20211003_401944_1" depart="1610" fromJunction="2550132181" toJunction="308934664" />
  <trip id="t_20211003_102146_5" depart="1635" fromJunction="1996446701" toJunction="745632762" />
  <trip id="t_20211003_261602_1" depart="1679" fromJunction="cluster_1022515512_3817927292" toJunction="cluster_4453077963_934179305" />
  <trip id="t_20211003_313093_1" depart="1691" fromJunction="1417200527" toJunction="1503594276" />
  <trip id="t_20211003_101388_1" depart="1692" fromJunction="1340930106" toJunction="7204829785" />
  <trip id="t_20211003_285301_1" type="truck" depart="1693" fromJunction="9789802333" toJunction="cluster_5620955863_9967280109" />
  <trip id="t_20211003_218241_1" depart="1706" fromJunction="504753787" toJunction="1189275695" />
  <trip id="t_20211003_103972_1" depart="1710" fromJunction="cluster_1340990489_4782557331" toJunction="11061841980" />
  <trip id="t_20211003_346110_1" depart="1717" fromJunction="1341042518" toJunction="1992672791" />
  <trip id="t_20211003_102188_1" depart="1750" fromJunction="cluster_1503594210_7947221530" toJunction="1417139866" />
  <trip id="t_20211003_539522_1" depart="1781" fromJunction="391206660" toJunction="1417200527" />
  <trip id="t_20211003_252489_3" depart="1787" fromJunction="cluster_1503594210_7947221530" toJunction="cluster_1064977901_504755508" />
  <trip id="t_20211003_26059_1" type="truck" depart="1789" fromJunction="308934664" toJunction="4248960562" />
  <trip id="t_20211003_157861_1" depart="1809" fromJunction="4328731698" toJunction="7204829785" />
  <trip id="t_20211003_564261_2" depart="1828" fromJunction="559436170" toJunction="5478033279" />
  <trip id="t_20211003_318210_1" depart="1847" fromJunction="cluster_1022515512_3817927292" toJunction="1341141501" />
  <trip id="t_20211003_120320_1" depart="1847" fromJunction="1815738572" toJunction="1815738572" />
  <trip id="t_20211003_435442_1" depart="1866" fromJunction="11061841979" toJunction="4782557337" />
  <trip id="t_20211003_121948_9" type="truck" depart="1873" fromJunction="1408485447" toJunction="2366961649" />
  <trip id="t_20211003_527650_3" type="truck" depart="1891" fromJunction="360704883" toJunction="cluster_1955925657_2374470976" />
  <trip id="t_20211003_453229_2" depart="1895" fromJunction="1517784598" toJunction="cluster_1341178588_4777123729" />
  <trip id="t_20211003_101895_4" type="truck" depart="1895" fromJunction="9728298857" toJunction="cluster_1406756764_1409997809" />
  <trip id="t_20211003_254381_1" depart="1899" fromJunction="cluster_5620955863_9967280109" toJunction="cluster_1349174564_6384912859" />
  <trip id="t_20211003_510808_5" type="truck" depart="1916" fromJunction="cluster_5620955863_9967280109" toJunction="5898861250" />
  <trip id="t_20211003_479120_1" depart="1936" fromJunction="2354314671" toJunction="9503800944" />
  <trip id="t_20211003_120265_3" type="truck" depart="1972" fromJunction="2550132181" toJunction="308934664" />
  <trip id="t_20211003_149114_1" depart="1979" fromJunction="cluster_5620955863_9967280109" toJunction="809892148" />
  <trip id="t_20211003_1320_1" depart="1993" fromJunction="2550132181" toJunction="465290731" />
  <trip id="t_20211003_479933_1" type="truck" depart="2000" fromJunction="1349216408" toJunction="2579845692" />
  <trip id="t_20211003_148091_1" depart="2004" fromJunction="7204798677" toJunction="10784499817" />
  <trip id="t_20211003_140418_1" depart="2011" fromJunction="2916133886" toJunction="cluster_5620955863_9967280109" />
  <trip id="t_20211003_526742_1" type="truck" depart="2051" fromJunction="cluster_1568981530_6384977558" toJunction="10784499818" />
  <trip id="t_20211003_212694_1" depart="2056" fromJunction="1340783909" toJunction="2579845692" />
  <trip id="t_20211003_161314_3" depart="2059" fromJunction="934214312" toJunction="7204829785" />
  <trip id="t_20211003_321314_12" type="truck" depart="2092" fromJunction="563301983" toJunction="cluster_1503594210_7947221530" />
  <trip id="t_20211003_216236_5" depart="2107" fromJunction="2652168668" toJunction="10784499818" />
  <trip id="t_20211003_301053_5" depart="2144" fromJunction="cluster_5620955863_9967280109" toJunction="cluster_1503594210_7947221530" />
  <trip id="t_20211003_414390_3" depart="2144" fromJunction="2579845692" toJunction="cluster_1503594210_7947221530" />
  <trip id="t_20211003_476816_3" type="truck" depart="2171" fromJunction="2271288844" toJunction="cluster_1503594210_7947221530" />
  <trip id="t_20211003_444979_1" type="truck" depart="2215" fromJunction="559436170" toJunction="cluster_1022515512_3817927292" />
  <trip id="t_20211003_344498_1" depart="2265" fromJunction="cluster_2089489059_5262901577_8090737477" toJunction="718512312" />
  <trip id="t_20211003_169028_1" type="truck" depart="2271" fromJunction="822874335" toJunction="1275992403" />
  <trip id="t_20211003_188292_3" depart="2273" fromJunction="7204829785" toJunction="6108895894" />
  <trip id="t_20211003_443158_2" depart="2282" fromJunction="2659956811" toJunction="1377378341" />
  <trip id="t_20211003_538942_2" depart="2327" fromJunction="11061841979" toJunction="1343282355" />
  <trip id="t_20211003_394702_1" depart="2338" fromJunction="1517784597" toJunction="1380239568" />
  <trip id="t_20211003_94871_1" depart="2355" fromJunction="5478033280" toJunction="2550126961" />
  <trip id="t_20211003_506391_1" type="truck" depart="2356" fromJunction="4328731716" toJunction="2916133886" />
  <trip id="t_20211003_540903_1" type="truck" depart="2366" fromJunction="264005498" toJunction="559436170" />
  <trip id="t_20211003_321690_5" depart="2374" fromJunction="cluster_11662327527_1503594335" toJunction="2579845692" />
  <trip id="t_20211003_282149_1" type="truck" depart="2375" fromJunction="cluster_271730976_309578837" toJunction="7204829785" />
  <trip id="t_20211003_121948_10" type="truck" depart="2402" fromJunction="J72" toJunction="12035891996" />
  <trip id="t_20211003_510326_3" depart="2404" fromJunction="1417200527" toJunction="cluster_5680870339_5680870349" />
  <trip id="t_20211003_278228_1" depart="2406" fromJunction="2579845692" toJunction="cluster_5680870339_5680870349" />
  <trip id="t_20211003_481016_2" depart="2407" fromJunction="cluster_1503594210_7947221530" toJunction="1189275695" />
  <trip id="t_20211003_493109_5" depart="2410" fromJunction="7204798677" toJunction="1182815813" />
  <trip id="t_20211003_513148_3" depart="2412" fromJunction="1749552951" toJunction="1416834487" />
  <trip id="t_20211003_295467_2" type="truck" depart="2443" fromJunction="2354303011" toJunction="1341141505" />
  <trip id="t_20211003_505068_1" depart="2460" fromJunction="2579845692" toJunction="cluster_11662327527_1503594335" />
  <trip id="t_20211003_267772_1" type="truck" depart="2500" fromJunction="2271288844" toJunction="969244765" />
  <trip id="t_20211003_187765_2" depart="2521" fromJunction="5898861250" toJunction="1417139866" />
  <trip id="t_20211003_461039_3" depart="2535" fromJunction="2916133886" toJunction="5898861250" />
  <trip id="t_20211003_249650_1" depart="2548" fromJunction="4754926336" toJunction="944746445" />
  <trip id="t_20211003_157802_1" depart="2562" fromJunction="cluster_1349176852_7222614696" toJunction="1349218466" />
  <trip id="t_20211003_142340_2" depart="2566" fromJunction="1340738300" toJunction="1349133588" />
  <trip id="t_20211003_500317_2" type="truck" depart="2577" fromJunction="cluster_5620955863_9967280109" toJunction="cluster_11662327527_1503594335" />
  <trip id="t_20211003_329564_3" depart="2582" fromJunction="2271288844" toJunction="1377378341" />
  <trip id="t_20211003_529155_2" depart="2601" fromJunction="cluster_10966780593_1349171716" toJunction="1349136052" />
  <trip id="t_20211003_424080_2" depart="2602" fromJunction="cluster_1503594210_7947221530" toJunction="cluster_2271305121_9967280117" />
  <trip id="t_20211003_283228_8" depart="2613" fromJunction="1417200527" toJunction="530860041" />
  <trip id="t_20211003_226865_2" type="truck" depart="2620" fromJunction="2579845692" toJunction="cluster_5680870339_5680870349" />
  <trip id="t_20211003_456859_1" depart="2632" fromJunction="10784499818" toJunction="1285946203" />
  <trip id="t_20211003_215251_2" depart="2651" fromJunction="1996446701" toJunction="5898861250" />
  <trip id="t_20211003_102701_1" depart="2654" fromJunction="6970960766" toJunction="1503594856" />
  <trip id="t_20211003_103512_1" depart="2661" fromJunction="cluster_2350129459_2350129506" toJunction="cluster_1226695505_1226695555" />
  <trip id="t_20211003_115774_2" depart="2685" fromJunction="5898861252" toJunction="2916133886" />
  <trip id="t_20211003_223955_2" depart="2686" fromJunction="2271288844" toJunction="cluster_1503594210_7947221530" />
  <trip id="t_20211003_506391_2" type="truck" depart="2697" fromJunction="cluster_3756601742_5716423965" toJunction="1417200527" />
  <trip id="t_20211003_129723_2" depart="2723" fromJunction="1187207260" toJunction="1734422752" />
  <trip id="t_20211003_541818_1" depart="2738" fromJunction="1416834470" toJunction="2663068630" />
  <trip id="t_20211003_121948_11" type="truck" depart="2771" fromJunction="6386980094" toJunction="cluster_5680870339_5680870349" />
  <trip id="t_20211003_258039_2" depart="2775" fromJunction="859949261" toJunction="cluster_5680870339_5680870349" />
  <trip id="t_20211003_240087_2" depart="2826" fromJunction="10784499818" toJunction="J136" />
  <trip id="t_20211003_493109_6" depart="2834" fromJunction="cluster_1602952821_3182193173" toJunction="J66" />
  <trip id="t_20211003_380831_1" depart="2838" fromJunction="cluster_1022515512_3817927292" toJunction="11059057323" />
  <trip id="t_20211003_385166_5" depart="2867" fromJunction="2579845692" toJunction="cluster_5680870339_5680870349" />
  <trip id="t_20211003_148239_14" depart="2900" fromJunction="cluster_1417164325_8093643032" toJunction="cluster_3606284653_8083429142" />
  <trip id="t_20211003_493109_7" depart="2912" fromJunction="7133304411" toJunction="12035891996" />
  <trip id="t_20211003_497830_3" depart="2930" fromJunction="cluster_5620955863_9967280109" toJunction="5898861250" />
  <trip id="t_20211003_366193_1" depart="2931" fromJunction="1417040798" toJunction="2915874263" />
  <trip id="t_20211003_546909_2" depart="2931" fromJunction="5898861250" toJunction="1417200527" />
  <trip id="t_20211003_504544_2" type="truck" depart="2992" fromJunction="822862714" toJunction="1174868707" />
  <trip id="t_20211003_502579_8" depart="3009" fromJunction="1408485447" toJunction="1377353901" />
  <trip id="t_20211003_524786_1" depart="3016" fromJunction="1408485447" toJunction="944746445" />
  <trip id="t_20211003_476337_6" depart="3017" fromJunction="1417200527" toJunction="1340783909" />
  <trip id="t_20211003_210500_1" depart="3060" fromJunction="1342344749" toJunction="4655048710" />
  <trip id="t_20211003_103204_1" depart="3069" fromJunction="2579787329" toJunction="5898861251" />
  <trip id="t_20211003_306535_1" depart="3081" fromJunction="1381530834" toJunction="1496268821" />
  <trip id="t_20211003_295721_4" depart="3093" fromJunction="cluster_2392311235_2392311247" toJunction="2659956773" />
  <trip id="t_20211003_127963_2" type="truck" depart="3150" fromJunction="1408485447" toJunction="360704701" />
  <trip id="t_20211003_442327_2" type="truck" depart="3157" fromJunction="4770556619" toJunction="1189275695" />
  <trip id="t_20211003_422903_3" type="truck" depart="3158" fromJunction="534611418" toJunction="1492355376" />
  <trip id="t_20211003_493109_8" depart="3177" fromJunction="6386980094" toJunction="cluster_5680870339_5680870349" />
  <trip id="t_20211003_288840_3" depart="3186" fromJunction="2271288844" toJunction="cluster_5680870339_5680870349" />
  <trip id="t_20211003_116663_3" depart="3190" fromJunction="2391362899" toJunction="2391362899" />
  <trip id="t_20211003_127634_5" depart="3195" fromJunction="5566378626" toJunction="896580418" />
  <trip id="t_20211003_363826_1" type="truck" depart="3196" fromJunction="2233135446" toJunction="2579787329" />
  <trip id="t_20211003_318908_2" depart="3217" fromJunction="934221955" toJunction="1377383574" />
  <trip id="t_20211003_471210_6" depart="3234" fromJunction="1409997110" toJunction="1409997110" />
  <trip id="t_20211003_292272_1" type="truck" depart="3237" fromJunction="1417200527" toJunction="cluster_11662327527_1503594335" />
  <trip id="t_20211003_542744_1" depart="3241" fromJunction="1408485447" toJunction="1377353901" />
  <trip id="t_20211003_212206_1" depart="3245" fromJunction="1349135203" toJunction="944746445" />
  <trip id="t_20211003_318222_1" depart="3342" fromJunction="3774578562" toJunction="cluster_5680870339_5680870349" />
  <trip id="t_20211003_256305_1" depart="3391" fromJunction="1025010805" toJunction="6415888989" />
  <trip id="t_20211003_437272_1" depart="3392" fromJunction="308020581" toJunction="944750629" />
  <trip id="t_20211003_513446_1" depart="3395" fromJunction="308934664" toJunction="529143487" />
  <trip id="t_20211003_102188_2" depart="3402" fromJunction="1417139866" toJunction="cluster_5620955863_9967280109" />
  <trip id="t_20211003_254696_2" depart="3444" fromJunction="7204829785" toJunction="1182813353" />
  <trip id="t_20211003_143805_2" depart="3483" fromJunction="cluster_1503594210_7947221530" toJunction="2579845692" />
  <trip id="t_20211003_160939_2" type="truck" depart="3498" fromJunction="2663068630" toJunction="1377353901" />
  <trip id="t_20211003_132177_8" depart="3500" fromJunction="1417200527" toJunction="5898861251" />
  <trip id="t_20211003_557127_2" depart="3526" fromJunction="506088813" toJunction="cluster_5620955863_9967280109" />
  <trip id="t_20211003_497194_5" depart="3559" fromJunction="10784499818" toJunction="811137479" />
  <trip id="t_20211003_292292_1" depart="3560" fromJunction="1343317833" toJunction="1189275695" />
  <trip id="t_20211003_221677_1" type="truck" depart="3565" fromJunction="1349130704" toJunction="1340928781" />
  <trip id="t_20211003_308484_3" depart="3576" fromJunction="cluster_1503594210_7947221530" toJunction="2579845692" />
  <trip id="t_20211003_266536_2" depart="3590" fromJunction="1377353901" toJunction="1408485447" />
  <trip id="t_20211003_163311_2" type="truck" depart="3606" fromJunction="cluster_1503594210_7947221530" toJunction="2579845692" />
  <trip id="t_20211003_303673_4" type="truck" depart="3632" fromJunction="559436170" toJunction="5478033279" />
  <trip id="t_20211003_490885_1" type="truck" depart="3646" fromJunction="1346850354" toJunction="465290731" />
  <trip id="t_20211003_117335_1" type="truck" depart="3692" fromJunction="2352927399" toJunction="cluster_1503594210_7947221530" />
  <trip id="t_20211003_328676_2" depart="3709" fromJunction="5898861250" toJunction="1408485447" />
  <trip id="t_20211003_422852_1" type="truck" depart="3722" fromJunction="2550132181" toJunction="529143487" />
  <trip id="t_20211003_489802_6" depart="3768" fromJunction="6594821526" toJunction="1377378373" />
  <trip id="t_20211003_103291_2" depart="3775" fromJunction="10294734245" toJunction="1406657119" />
  <trip id="t_20211003_228392_1" depart="3797" fromJunction="3817790262" toJunction="7133011892" />
  <trip id="t_20211003_584664_2" depart="3858" fromJunction="2520602912" toJunction="934221918" />
  <trip id="t_20211003_355397_3" depart="3899" fromJunction="5898861250" toJunction="2374470979" />
  <trip id="t_20211003_242742_1" depart="3962" fromJunction="3210162917" toJunction="10784499818" />
  <trip id="t_20211003_371799_8" depart="3972" fromJunction="2916133886" toJunction="cluster_1503594210_7947221530" />
  <trip id="t_20211003_386557_4" depart="3975" fromJunction="5898861250" toJunction="547680203" />