<?xml version='1.0' encoding='utf-8'?>
<routes>
  <trip id="t_20211003_244027_8" depart="16209" fromJunction="3191566391" toJunction="2366810666" />
  <trip id="t_20211003_259073_8" type="truck" depart="16217" fromJunction="2663068630" toJunction="1182816415" />
  <trip id="t_20211003_269846_52" depart="16234" fromJunction="2579787329" toJunction="896580418" />
  <trip id="t_20211003_104118_6" type="truck" depart="16244" fromJunction="1381356025" toJunction="1417040268" />
  <trip id="t_20211003_324099_3" depart="16258" fromJunction="cluster_11034574650_11034574651_1380283540_800033947" toJunction="1189275695" />
  <trip id="t_20211003_348555_2" type="truck" depart="16261" fromJunction="2374470979" toJunction="1417069858" />
  <trip id="t_20211003_300811_2" depart="16263" fromJunction="559388330" toJunction="2579845692" />
  <trip id="t_20211003_540719_2" depart="16264" fromJunction="3195744571" toJunction="10784499818" />
  <trip id="t_20211003_344298_1" depart="16275" fromJunction="cluster_1417116166_6320353052" toJunction="1417069548" />
  <trip id="t_20211003_246293_7" depart="16283" fromJunction="1408485447" toJunction="2915874263" />
  <trip id="t_20211003_68360_1" type="truck" depart="16285" fromJunction="370268754" toJunction="465290731" />
  <trip id="t_20211003_228392_6" depart="16286" fromJunction="853136856" toJunction="5866620768" />
  <trip id="t_20211003_458254_1" depart="16297" fromJunction="1417200527" toJunction="cluster_5680870339_5680870349" />
  <trip id="t_20211003_459588_5" type="truck" depart="16299" fromJunction="2938567039" toJunction="2938567039" />
  <trip id="t_20211003_424502_1" type="truck" depart="16302" fromJunction="2348738846" toJunction="308934664" />
  <trip id="t_20211003_518513_6" depart="16308" fromJunction="2941847906" toJunction="2941847906" />
  <trip id="t_20211003_182548_2" depart="16316" fromJunction="7057728142" toJunction="2663068630" />
  <trip id="t_20211003_480040_1" depart="16328" fromJunction="308934664" toJunction="529143487" />
  <trip id="t_20211003_253364_1" depart="16354" fromJunction="1626872414" toJunction="cluster_1417039246_8085439319_8090737458" />
  <trip id="t_20211003_173363_5" depart="16356" fromJunction="cluster_1503594210_7947221530" toJunction="899030454" />
  <trip id="t_20211003_564946_3" depart="16359" fromJunction="cluster_5620955863_9967280109" toJunction="745632762" />
  <trip id="t_20211003_518513_7" depart="16363" fromJunction="944754194" toJunction="1182814753" />
  <trip id="t_20211003_114316_4" type="truck" depart="16370" fromJunction="cluster_1022515512_3817927292" toJunction="2915874263" />
  <trip id="t_20211003_271820_1" depart="16370" fromJunction="1349174567" toJunction="1417200527" />
  <trip id="t_20211003_514725_3" depart="16372" fromJunction="1343280850" toJunction="1388640586" />
  <trip id="t_20211003_185242_3" depart="16375" fromJunction="599901714" toJunction="1340782587" />
  <trip id="t_20211003_511938_17" depart="16377" fromJunction="1417200527" toJunction="cluster_5680870339_5680870349" />
  <trip id="t_20211003_348114_2" type="truck" depart="16380" fromJunction="944754189" toJunction="1408485447" />
  <trip id="t_20211003_222391_1" type="truck" depart="16415" fromJunction="11329220399" toJunction="2941850614" />
  <trip id="t_20211003_244027_9" depart="16416" fromJunction="2031913336" toJunction="cluster_800074687_800074688" />
  <trip id="t_20211003_510150_10" depart="16418" fromJunction="1377353901" toJunction="J102" />
  <trip id="t_20211003_438504_8" depart="16426" fromJunction="1340928781" toJunction="cluster_1955925751_7475297659" />
  <trip id="t_20211003_165154_2" depart="16430" fromJunction="944750629" toJunction="547803687" />
  <trip id="t_20211003_307190_3" type="truck" depart="16432" fromJunction="547803688" toJunction="547803688" />
  <trip id="t_20211003_318763_13" type="truck" depart="16480" fromJunction="1417200527" toJunction="cluster_1503594210_7947221530" />
  <trip id="t_20211003_276352_21" depart="16484" fromJunction="1815738556" toJunction="1408533209" />
  <trip id="t_20211003_228029_5" depart="16506" fromJunction="2271288844" toJunction="1815738985" />
  <trip id="t_20211003_364584_9" depart="16520" fromJunction="953662690" toJunction="1417040268" />
  <trip id="t_20211003_137246_9" depart="16532" fromJunction="10774550642" toJunction="2136790004" />
  <trip id="t_20211003_324208_7" depart="16538" fromJunction="5612970922" toJunction="2143386969" />
  <trip id="t_20211003_285908_2" depart="16552" fromJunction="cluster_1503594210_7947221530" toJunction="cluster_5620955863_9967280109" />
  <trip id="t_20211003_135655_2" type="truck" depart="16554" fromJunction="cluster_1022515512_3817927292" toJunction="1033323531" />
  <trip id="t_20211003_106368_6" depart="16555" fromJunction="7204829785" toJunction="2915852080" />
  <trip id="t_20211003_339640_1" depart="16562" fromJunction="cluster_1354261529_2353077600" toJunction="2659956773" />
  <trip id="t_20211003_372216_1" depart="16572" fromJunction="370268754" toJunction="308934664" />
  <trip id="t_20211003_173095_47" depart="16582" fromJunction="cluster_5620955863_9967280109" toJunction="cluster_1503594210_7947221530" />
  <trip id="t_20211003_192234_9" type="truck" depart="16583" fromJunction="4770556602" toJunction="2579787329" />
  <trip id="t_20211003_238086_1" depart="16585" fromJunction="J55" toJunction="cluster_5620955863_9967280109" />
  <trip id="t_20211003_530294_4" type="truck" depart="16593" fromJunction="cluster_2271305121_9967280117" toJunction="cluster_1503594210_7947221530" />
  <trip id="t_20211003_213001_3" depart="16600" fromJunction="2391362885" toJunction="cluster_5620955863_9967280109" />
  <trip id="t_20211003_460911_3" depart="16604" fromJunction="cluster_5620955863_9967280109" toJunction="5898861250" />
  <trip id="t_20211003_398862_15" depart="16606" fromJunction="2579787329" toJunction="cluster_5680870339_5680870349" />
  <trip id="t_20211003_222855_3" depart="16613" fromJunction="10294734245" toJunction="1472074794" />
  <trip id="t_20211003_498914_2" depart="16614" fromJunction="5310395345" toJunction="5310425979" />
  <trip id="t_20211003_319196_3" type="truck" depart="16616" fromJunction="cluster_5680870339_5680870349" toJunction="2579787329" />
  <trip id="t_20211003_236700_5" depart="16616" fromJunction="1996446701" toJunction="cluster_1503594210_7947221530" />
  <trip id="t_20211003_352458_2" depart="16616" fromJunction="cluster_11061841961_1346917633" toJunction="7204829785" />
  <trip id="t_20211003_442221_3" type="truck" depart="16619" fromJunction="922428478" toJunction="cluster_1955925657_2374470976" />
  <trip id="t_20211003_500021_1" depart="16632" fromJunction="1341041841" toJunction="2663068630" />
  <trip id="t_20211003_441114_8" depart="16652" fromJunction="4328731712" toJunction="cluster_6876982182_6876989013" />
  <trip id="t_20211003_300442_6" depart="16654" fromJunction="5612970718" toJunction="10774550642" />
  <trip id="t_20211003_103906_30" depart="16658" fromJunction="1417200527" toJunction="2992688072" />
  <trip id="t_20211003_451408_2" type="truck" depart="16662" fromJunction="6593242473" toJunction="465290731" />
  <trip id="t_20211003_537785_13" depart="16685" fromJunction="5898861252" toJunction="11866461632" />
  <trip id="t_20211003_259073_9" type="truck" depart="16692" fromJunction="1182816134" toJunction="1377378352" />
  <trip id="t_20211003_495605_11" depart="16696" fromJunction="cluster_5620955863_9967280109" toJunction="1417140268" />
  <trip id="t_20211003_292250_1" type="truck" depart="16702" fromJunction="6415888989" toJunction="cluster_1417039246_8085439319_8090737458" />
  <trip id="t_20211003_360571_3" type="truck" depart="16710" fromJunction="7204798677" toJunction="1340928781" />
  <trip id="t_20211003_546114_1" depart="16712" fromJunction="cluster_2089489071_8085439357" toJunction="1417200527" />
  <trip id="t_20211003_289130_2" type="truck" depart="16719" fromJunction="cluster_1503594210_7947221530" toJunction="2348758507" />
  <trip id="t_20211003_564946_4" depart="16723" fromJunction="859949261" toJunction="5898861252" />
  <trip id="t_20211003_405714_3" depart="16728" fromJunction="5560701887" toJunction="2579845690" />
  <trip id="t_20211003_454078_2" type="truck" depart="16734" fromJunction="4770556620" toJunction="1408485447" />
  <trip id="t_20211003_370254_5" depart="16737" fromJunction="cluster_5620955863_9967280109" toJunction="cluster_5680870339_5680870349" />
  <trip id="t_20211003_281251_1" depart="16751" fromJunction="1417070005" toJunction="1417070005" />
  <trip id="t_20211003_244399_1" depart="16756" fromJunction="cluster_4328731731_506088826" toJunction="cluster_1340990489_4782557331" />
  <trip id="t_20211003_257850_1" depart="16758" fromJunction="1495981365" toJunction="906319557" />
  <trip id="t_20211003_201276_1" type="truck" depart="16761" fromJunction="2271288844" toJunction="cluster_1503594210_7947221530" />
  <trip id="t_20211003_127963_4" type="truck" depart="16792" fromJunction="1182816331" toJunction="7204829785" />
  <trip id="t_20211003_103972_4" depart="16793" fromJunction="6108215125" toJunction="cluster_1340990489_4782557331" />
  <trip id="t_20211003_315205_2" depart="16795" fromJunction="cluster_3191571025_3191571026" toJunction="1189275695" />
  <trip id="t_20211003_485665_30" depart="16796" fromJunction="10301720422" toJunction="cluster_11034574650_11034574651_1380283540_800033947" />
  <trip id="t_20211003_489802_9" depart="16797" fromJunction="1815738556" toJunction="9920239212" />
  <trip id="t_20211003_307752_4" type="truck" depart="16803" fromJunction="1381376800" toJunction="2542579240" />
  <trip id="t_20211003_369964_11" depart="16807" fromJunction="1189275695" toJunction="cluster_1064975416_1064975444" />
  <trip id="t_20211003_362889_4" type="truck" depart="16839" fromJunction="2663068627" toJunction="1381376246" />
  <trip id="t_20211003_326260_4" depart="16845" fromJunction="7204829785" toJunction="2915874263" />
  <trip id="t_20211003_555917_9" depart="16863" fromJunction="6295357702" toJunction="1519451711" />
  <trip id="t_20211003_516072_1" depart="16865" fromJunction="1192641950" toJunction="1417070210" />
  <trip id="t_20211003_338159_2" depart="16870" fromJunction="cluster_1503594210_7947221530" toJunction="1417200527" />
  <trip id="t_20211003_521660_2" depart="16873" fromJunction="559436170" toJunction="5478033279" />
  <trip id="t_20211003_235971_5" depart="16894" fromJunction="1377353901" toJunction="2652084331" />
  <trip id="t_20211003_398989_1" depart="16908" fromJunction="cluster_1417200682_1417200690" toJunction="1380239533" />
  <trip id="t_20211003_542542_13" depart="16912" fromJunction="cluster_6876982171_6876989022" toJunction="1349132074" />
  <trip id="t_20211003_246347_1" depart="16926" fromJunction="934218083" toJunction="547803687" />
  <trip id="t_20211003_385899_7" depart="16931" fromJunction="cluster_1503594210_7947221530" toJunction="1377383074" />
  <trip id="t_20211003_248161_4" type="truck" depart="16945" fromJunction="2374470979" toJunction="944750629" />
  <trip id="t_20211003_378637_1" depart="16945" fromJunction="1285942779" toJunction="1182813250" />
  <trip id="t_20211003_560972_1" depart="16962" fromJunction="465290731" toJunction="2550126961" />
  <trip id="t_20211003_204708_7" depart="16975" fromJunction="1022516496" toJunction="cluster_11662327527_1503594335" />
  <trip id="t_20211003_121998_1" depart="16977" fromJunction="cluster_1417116585_6320310698" toJunction="1022516496" />
  <trip id="t_20211003_245344_2" depart="16992" fromJunction="2271288844" toJunction="5898861252" />
  <trip id="t_20211003_335929_1" depart="17037" fromJunction="907586123" toJunction="811137479" />
  <trip id="t_20211003_361394_12" depart="17045" fromJunction="853136856" toJunction="2579845692" />
  <trip id="t_20211003_555917_10" depart="17046" fromJunction="504157974" toJunction="cluster_11840492880_11840492881" />
  <trip id="t_20211003_367247_1" depart="17059" fromJunction="cluster_5729374640_6296876108" toJunction="5579752000" />
  <trip id="t_20211003_462102_6" type="truck" depart="17060" fromJunction="1189275695" toJunction="5898861252" />
  <trip id="t_20211003_362872_2" depart="17064" fromJunction="cluster_2351703295_9954600066_9954600068_9954600148" toJunction="308934664" />
  <trip id="t_20211003_469489_1" depart="17070" fromJunction="2287858601" toJunction="934224393" />
  <trip id="t_20211003_406372_1" depart="17076" fromJunction="559436170" toJunction="264005498" />
  <trip id="t_20211003_396438_3" depart="17081" fromJunction="cluster_5680870339_5680870349" toJunction="cluster_5620955863_9967280109" />
  <trip id="t_20211003_417176_23" depart="17094" fromJunction="1408485447" toJunction="1520938446" />
  <trip id="t_20211003_546025_1" depart="17106" fromJunction="308934664" toJunction="529143487" />
  <trip id="t_20211003_351877_2" depart="17121" fromJunction="922428478" toJunction="7133304411" />
  <trip id="t_20211003_377792_3" type="truck" depart="17124" fromJunction="934218083" toJunction="2916233434" />
  <trip id="t_20211003_460863_3" depart="17125" fromJunction="cluster_1503594210_7947221530" toJunction="2663068630" />
  <trip id="t_20211003_412809_49" type="truck" depart="17131" fromJunction="1408485447" toJunction="4782557337" />
  <trip id="t_20211003_45616_1" type="truck" depart="17135" fromJunction="308934664" toJunction="529143487" />
  <trip id="t_20211003_565063_1" type="truck" depart="17163" fromJunction="370268754" toJunction="465290731" />
  <trip id="t_20211003_262206_10" depart="17164" fromJunction="7204798677" toJunction="cluster_1503594210_7947221530" />
  <trip id="t_20211003_496666_2" depart="17185" fromJunction="7133011892" toJunction="cluster_5620955863_9967280109" />
  <trip id="t_20211003_149929_9" depart="17187" fromJunction="2663068630" toJunction="1377353901" />
  <trip id="t_20211003_332837_6" depart="17192" fromJunction="2144956976" toJunction="1602952819" />
  <trip id="t_20211003_221129_9" depart="17192" fromJunction="800052086" toJunction="1349132932" />
  <trip id="t_20211003_356898_8" depart="17208" fromJunction="860998887" toJunction="1517784909" />
  <trip id="t_20211003_117032_1" depart="17212" fromJunction="718382135" toJunction="5478033279" />
  <trip id="t_20211003_221112_27" depart="17215" fromJunction="2579845692" toJunction="4453077965" />
  <trip id="t_20211003_139288_1" depart="17218" fromJunction="860695203" toJunction="2391362885" />
  <trip id="t_20211003_129149_5" depart="17222" fromJunction="1349130939" toJunction="10774550642" />
  <trip id="t_20211003_479356_14" depart="17235" fromJunction="cluster_1022389371_746286670" toJunction="cluster_5680870339_5680870349" />
  <trip id="t_20211003_224488_3" depart="17241" fromJunction="cluster_1503594210_7947221530" toJunction="547680203" />
  <trip id="t_20211003_411947_13" depart="17252" fromJunction="1417200527" toJunction="4453077965" />
  <trip id="t_20211003_421883_1" type="truck" depart="17257" fromJunction="2550132181" toJunction="529143487" />
  <trip id="t_20211003_213443_1" depart="17262" fromJunction="7204829785" toJunction="cluster_11662327406_5684401837" />
  <trip id="t_20211003_177705_22" depart="17271" fromJunction="2652084323" toJunction="309600212" />
  <trip id="t_20211003_413001_12" type="truck" depart="17293" fromJunction="cluster_1503594210_7947221530" toJunction="cluster_11274676616_11274676617_11274676618_1349172590_#1more" />
  <trip id="t_20211003_474977_6" depart="17297" fromJunction="cluster_5680870339_5680870349" toJunction="2306153120" />
  <trip id="t_20211003_405528_6" type="truck" depart="17315" fromJunction="11061841979" toJunction="271731034" />
  <trip id="t_20211003_300123_9" depart="17319" fromJunction="1417200527" toJunction="cluster_5680870339_5680870349" />
  <trip id="t_20211003_218252_3" depart="17323" fromJunction="1408485447" toJunction="969244765" />
  <trip id="t_20211003_404799_3" type="truck" depart="17387" fromJunction="308934664" toJunction="529143487" />
  <trip id="t_20211003_160943_2" type="truck" depart="17391" fromJunction="1417200527" toJunction="944741398" />
  <trip id="t_20211003_247438_4" depart="17392" fromJunction="11061841979" toJunction="1343280850" />
  <trip id="t_20211003_183738_3" depart="17399" fromJunction="2938567035" toJunction="2663068630" />
  <trip id="t_20211003_114163_1" depart="17420" fromJunction="1496268613" toJunction="2579845692" />
  <trip id="t_20211003_365002_1" depart="17434" fromJunction="1182813364" toJunction="10784499818" />
  <trip id="t_20211003_503178_9" depart="17456" fromJunction="1408485447" toJunction="934221910" />
  <trip id="t_20211003_224488_4" depart="17462" fromJunction="cluster_5551921186_5551928322" toJunction="2579845692" />
  <trip id="t_20211003_325074_1" depart="17471" fromJunction="1495981427" toJunction="1377378341" />
  <trip id="t_20211003_405528_7" type="truck" depart="17474" fromJunction="5310425974" toJunction="1340783909" />
  <trip id="t_20211003_37587_2" depart="17487" fromJunction="1182814715" toJunction="559436170" />
  <trip id="t_20211003_464168_1" depart="17495" fromJunction="1182815250" toJunction="5478033279" />
  <trip id="t_20211003_191614_1" type="truck" depart="17514" fromJunction="2374470979" toJunction="1184412010" />
  <trip id="t_20211003_331220_1" type="truck" depart="17516" fromJunction="1182815036" toJunction="cluster_5620955863_9967280109" />
  <trip id="t_20211003_201545_1" depart="17528" fromJunction="2550132181" toJunction="529143487" />
  <trip id="t_20211003_474977_7" depart="17535" fromJunction="11704106792" toJunction="3191939907" />
  <trip id="t_20211003_546053_1" type="truck" depart="17560" fromJunction="934178194" toJunction="264005520" />
  <trip id="t_20211003_296491_6" depart="17560" fromJunction="cluster_1503594210_7947221530" toJunction="cluster_5620955863_9967280109" />
  <trip id="t_20211003_542759_1" depart="17570" fromJunction="1349179122" toJunction="1022515186" />
  <trip id="t_20211003_183350_1" type="truck" depart="17581" fromJunction="10294734245" toJunction="944759831" />
  <trip id="t_20211003_202528_8" type="truck" depart="17592" fromJunction="cluster_1955925657_2374470976" toJunction="2666391671" />
  <trip id="t_20211003_387214_8" depart="17594" fromJunction="1189275695" toJunction="4697576953" />
  <trip id="t_20211003_332837_7" depart="17601" fromJunction="2093288648" toJunction="J61" />
  <trip id="t_20211003_179575_4" depart="17609" fromJunction="2240832385" toJunction="1341072014" />
  <trip id="t_20211003_237909_2" depart="17620" fromJunction="cluster_5680870339_5680870349" toJunction="7204798677" />
  <trip id="t_20211003_310966_8" depart="17626" fromJunction="1815738572" toJunction="cluster_10294734214_7503194189" />
  <trip id="t_20211003_437587_4" depart="17635" fromJunction="2271288844" toJunction="cluster_11662327527_1503594335" />
  <trip id="t_20211003_525291_5" depart="17637" fromJunction="2366672696" toJunction="1417070210" />
  <trip id="t_20211003_295482_3" depart="17639" fromJunction="1520978460" toJunction="2663068630" />
  <trip id="t_20211003_351877_4" depart="17642" fromJunction="2031913336" toJunction="1182816483" />
  <trip id="t_20211003_196692_2" depart="17647" fromJunction="1417200527" toJunction="cluster_5680870339_5680870349" />
  <trip id="t_20211003_282564_8" depart="17666" fromJunction="2663068630" toJunction="944746445" />
  <trip id="t_20211003_285301_5" type="truck" depart="17692" fromJunction="J57" toJunction="cluster_2271305121_9967280117" />
  <trip id="t_20211003_166839_1" depart="17711" fromJunction="1182813353" toJunction="cluster_5620955863_9967280109" />
  <trip id="t_20211003_406016_1" depart="17728" fromJunction="cluster_1341178588_4777123729" toJunction="2144957593" />
  <trip id="t_20211003_348828_4" depart="17756" fromJunction="2938567035" toJunction="cluster_2271305121_9967280117" />
  <trip id="t_20211003_235335_3" depart="17767" fromJunction="534611416" toJunction="7204829785" />
  <trip id="t_20211003_510699_3" depart="17771" fromJunction="919468500" toJunction="1189275695" />
  <trip id="t_20211003_207121_5" depart="17773" fromJunction="1417200527" toJunction="cluster_5680870339_5680870349" />
  <trip id="t_20211003_233546_1" depart="17782" fromJunction="cluster_1417116166_6320353052" toJunction="1496268562" />
  <trip id="t_20211003_554887_10" type="truck" depart="17798" fromJunction="1815738572" toJunction="1377378410" />
  <trip id="t_20211003_246516_1" type="truck" depart="17802" fromJunction="2143415812" toJunction="1815738556" />
  <trip id="t_20211003_545523_3" type="truck" depart="17810" fromJunction="5898861250" toJunction="1189275695" />
  <trip id="t_20211003_287574_1" depart="17818" fromJunction="1349178989" toJunction="1022515186" />
  <trip id="t_20211003_275380_6" type="truck" depart="17824" fromJunction="7204798677" toJunction="1377353901" />
  <trip id="t_20211003_113639_2" depart="17831" fromJunction="1768424180" toJunction="1189275695" />
  <trip id="t_20211003_260444_4" depart="17860" fromJunction="853136856" toJunction="944757735" />
  <trip id="t_20211003_293125_1" type="truck" depart="17863" fromJunction="5859907204" toJunction="1408485447" />
  <trip id="t_20211003_343056_14" depart="17882" fromJunction="cluster_1503594210_7947221530" toJunction="cluster_2271305121_9967280117" />
  <trip id="t_20211003_265423_2" depart="17898" fromJunction="cluster_1503594210_7947221530" toJunction="1408485447" />
  <trip id="t_20211003_496321_13" depart="17902" fromJunction="7334314031" toJunction="953558463" />
  <trip id="t_20211003_210280_5" type="truck" depart="17907" fromJunction="J55" toJunction="1520938446" />
  <trip id="t_20211003_165908_6" depart="17915" fromJunction="4248960561" toJunction="529143487" />
  <trip id="t_20211003_193858_4" depart="17919" fromJunction="1408485447" toJunction="cluster_5680870339_5680870349" />
  <trip id="t_20211003_566748_1" depart="17919" fromJunction="cluster_1533964060_6657638117" toJunction="5478033279" />
  <trip id="t_20211003_263660_1" depart="17919" fromJunction="8483539785" toJunction="718512312" />
  <trip id="t_20211003_373691_8" depart="17927" fromJunction="1349134530" toJunction="1349134530" />
  <trip id="t_20211003_426277_4" depart="17929" fromJunction="cluster_5620955863_9967280109" toJunction="4770556620" />
  <trip id="t_20211003_373191_1" depart="17931" fromJunction="360704701" toJunction="7204829785" />
  <trip id="t_20211003_252157_1" depart="17944" fromJunction="2659956811" toJunction="934202459" />
  <trip id="t_20211003_210280_6" type="truck" depart="17963" fromJunction="944754173" toJunction="cluster_5620955863_9967280109" />
  <trip id="t_20211003_492203_1" depart="17966" fromJunction="1974852229" toJunction="1340974831" />
  <trip id="t_20211003_181822_1" depart="17978" fromJunction="308934664" toJunction="529143487" />
  <trip id="t_20211003_403570_8" depart="17980" fromJunction="3774578530" toJunction="3210154992" />
  <trip id="t_20211003_324966_2" depart="17981" fromJunction="934221914" toJunction="5612970718" />
  <trip id="t_20211003_285250_15" type="truck" depart="17987" fromJunction="cluster_1503594210_7947221530" toJunction="2579787329" />
  <trip id="t_20211003_540296_1" depart="18001" fromJunction="cluster_1182813457_1182816358" toJunction="2550126961" />
  <trip id="t_add_1_4341" depart="18003" from="186584209#0" to="E34" />
  <trip id="t_add_1_41" depart="18006" from="E34" to="E34" />
  <trip id="t_20211003_435442_3" depart="18014" fromJunction="11061841979" toJunction="cluster_1340990489_4782557331" />
  <trip id="t_add_1_3263" depart="18020" from="E34" to="E34" />
  <trip id="t_add_1_952" depart="18021" from="-135978671#6" to="E34" />
  <trip id="t_add_0_378" depart="18022" from="E34" to="675322654" />
  <trip id="t_add_0_238" depart="18027" from="E34" to="475871290" />
  <trip id="t_add_5_379" depart="18028" from="372125908" to="314943854#10" />
  <trip id="t_20211003_190493_2" depart="18038" fromJunction="559436170" toJunction="5478033279" />
  <trip id="t_add_0_3713" depart="18047" from="E34" to="672272310#8" />
  <trip id="t_add_0_5745" depart="18047" from="E34" to="-102422793#5" />
  <trip id="t_add_1_2088" depart="18047" from="28186167#1" to="E34" />
  <trip id="t_add_0_1273" depart="18050" from="E34" to="128187683#0" />
  <trip id="t_20211003_559162_1" type="truck" depart="18051" fromJunction="2550132181" toJunction="5478033279" />
  <trip id="t_add_0_5248" depart="18056" from="E34" to="-288013878#1" />
  <trip id="t_add_0_3629" depart="18057" from="E34" to="1017530903#2" />
  <trip id="t_add_1_1158" depart="18058" from="-816375486#0" to="E34" />
  <trip id="t_20211003_206673_3" depart="18063" fromJunction="1517784598" toJunction="1417115778" />
  <trip id="t_add_1_5037" depart="18072" from="314943856#13" to="E34" />
  <trip id="t_add_11_147" depart="18074" from="124771681#5" to="732836013#5" />
  <trip id="t_add_1_5579" depart="18079" from="475871181" to="E34" />
  <trip id="t_add_1_1627" depart="18082" from="-587995572#1" to="E34" />
  <trip id="t_add_1_4518" depart="18083" from="156179632#1" to="E34" />
  <trip id="t_add_0_5385" depart="18086" from="E34" to="-128186167#1" />
  <trip id="t_add_2_28" depart="18088" from="1231325635#1" to="-785023875#3" />
  <trip id="t_add_0_5558" depart="18091" from="E34" to="136400039#0" />
  <trip id="t_20211003_525070_1" type="truck" depart="18092" fromJunction="1349171826" toJunction="2579845692" />
  <trip id="t_add_1_2565" depart="18096" from="E34" to="E34" />
  <trip id="t_add_1_4018" depart="18110" from="72414024" to="E34" />
  <trip id="t_20211003_119103_1" depart="18113" fromJunction="2550132181" toJunction="465290731" />
  <trip id="t_add_0_3913" depart="18115" from="E34" to="-32133016#3" />
  <trip id="t_add_1_1221" depart="18119" from="E34" to="E34" />
  <trip id="t_add_1_2282" depart="18119" from="619919854#1" to="E34" />
  <trip id="t_add_10_117" depart="18120" from="732836013#5" to="75036072" />
  <trip id="t_add_0_1499" depart="18133" from="E34" to="-619915697" />
  <trip id="t_20211003_185607_4" depart="18134" fromJunction="860998887" toJunction="6660060893" />
  <trip id="t_add_6_234" depart="18136" from="314943854#4" to="120298200#1" />
  <trip id="t_20211003_308658_1" depart="18137" fromJunction="9671184703" toJunction="9671184703" />
  <trip id="t_20211003_89169_1" depart="18137" fromJunction="559436170" toJunction="11122648165" />
  <trip id="t_add_10_262" depart="18138" from="732836013#5" to="-120299381#7" />
  <trip id="t_add_5_48" depart="18139" from="-136369225#4" to="314943854#10" />
  <trip id="t_add_0_5244" depart="18144" from="E34" to="120304751#1" />
  <trip id="t_add_0_4155" depart="18148" from="E34" to="89051103#4" />
  <trip id="t_add_1_5866" depart="18150" from="-138422778#9" to="E34" />
  <trip id="t_20211003_239735_7" depart="18155" fromJunction="1417200527" toJunction="J61" />
  <trip id="t_add_1_5937" depart="18159" from="-288081726#2" to="E34" />
  <trip id="t_add_0_1352" depart="18161" from="E34" to="-288148844#3" />
  <trip id="t_add_1_2173" depart="18164" from="871547549#0" to="E34" />
  <trip id="t_add_2_358" depart="18165" from="1231325635#1" to="-123548562" />
  <trip id="t_20211003_433869_1" depart="18167" fromJunction="11247315915" toJunction="5478033279" />
  <trip id="t_add_5_316" depart="18168" from="80112511#4" to="314943854#10" />
  <trip id="t_add_0_5332" depart="18171" from="E34" to="-871541472#8" />
  <trip id="t_add_1_2726" depart="18171" from="-124896254#11" to="E34" />
  <trip id="t_add_1_5463" depart="18175" from="260867690#6" to="E34" />
  <trip id="t_add_1_1734" depart="18176" from="-288081710#1" to="E34" />
  <trip id="t_add_0_1289" depart="18178" from="E34" to="-671947195#0" />
  <trip id="t_add_1_1800" depart="18179" from="-124772224#1" to="E34" />
  <trip id="t_20211003_361801_48" depart="18180" fromJunction="2271288844" toJunction="547803687" />
  <trip id="t_add_0_4287" depart="18181" from="E34" to="135978792#0" />
  <trip id="t_add_0_5551" depart="18183" from="E34" to="102422736#3" />
  <trip id="t_add_1_1209" depart="18187" from="138422630#2" to="E34" />
  <trip id="t_20211003_590874_9" depart="18195" fromJunction="1377378352" toJunction="811137479" />
  <trip id="t_20211003_308834_2" depart="18201" fromJunction="534611416" toJunction="cluster_7204798666_7204798667" />
  <trip id="t_add_5_472" depart="18202" from="192430622#2" to="314943854#10" />
  <trip id="t_20211003_347091_1" depart="18203" fromJunction="308934664" toJunction="529143487" />
  <trip id="t_add_0_4550" depart="18206" from="E34" to="123548479#6" />
  <trip id="t_add_1_1435" depart="18207" from="674177493" to="E34" />
  <trip id="t_20211003_301298_4" depart="18208" fromJunction="cluster_1503594210_7947221530" toJunction="746286662" />
  <trip id="t_add_0_1451" depart="18208" from="E34" to="-120298939#2" />
  <trip id="t_add_11_288" depart="18212" from="906742864#3" to="732836013#5" />
  <trip id="t_20211003_295837_8" depart="18214" fromJunction="2579787329" toJunction="3191939907" />
  <trip id="t_20211003_433129_58" depart="18228" fromJunction="1354261583" toJunction="944750629" />
  <trip id="t_add_0_5330" depart="18229" from="E34" to="-849787175#30" />
  <trip id="t_20211003_313798_1" depart="18232" fromJunction="547803683" toJunction="547803683" />
  <trip id="t_add_1_5446" depart="18236" from="-128187700#1" to="E34" />
  <trip id="t_add_1_3102" depart="18237" from="-849787175#9" to="E34" />
  <trip id="t_add_0_2470" depart="18245" from="E34" to="123548557#1" />
  <trip id="t_add_1_5538" depart="18247" from="-702088274#2" to="E34" />
  <trip id="t_20211003_127689_2" type="truck" depart="18248" fromJunction="860998887" toJunction="1189275695" />
  <trip id="t_add_1_338" depart="18248" from="128189005#1" to="E34" />
  <trip id="t_20211003_346339_1" depart="18249" fromJunction="1182815036" toJunction="cluster_5620955863_9967280109" />