<?xml version='1.0' encoding='UTF-8'?>
<routes>
  <trip id="t_t_add_0_0" depart="1" from="E34" to="-120298798" />
  <trip id="t_t_add_0_1" depart="1" from="E34" to="-120298924" />
  <trip id="t_t_add_0_2" depart="1" from="E34" to="669861137#0" />
  <trip id="t_t_add_0_3" depart="1" from="E34" to="138422630#14" />
  <trip id="t_t_add_0_4" depart="1" from="E34" to="1069102814#4" />
  <trip id="t_t_add_0_5" depart="1" from="E34" to="128187716#7" />
  <trip id="t_t_add_0_6" depart="1" from="E34" to="1180915706#7" />
  <trip id="t_t_add_0_7" depart="1" from="E34" to="-852138642#12" />
  <trip id="t_t_add_0_8" depart="1" from="E34" to="371444593#1" />
  <trip id="t_t_add_0_9" depart="1" from="E34" to="-186584294#4" />
  <trip id="t_t_add_0_10" depart="1" from="E34" to="-372542608#0" />
  <trip id="t_t_add_0_11" depart="1" from="E34" to="88221909" />
  <trip id="t_t_add_0_12" depart="1" from="E34" to="-120299245" />
  <trip id="t_t_add_0_13" depart="1" from="E34" to="-124771666#1" />
  <trip id="t_t_add_0_14" depart="1" from="E34" to="169920389#6" />
  <trip id="t_t_add_0_15" depart="1" from="E34" to="475871204#5" />
  <trip id="t_t_add_0_16" depart="1" from="E34" to="-124771659#8" />
  <trip id="t_t_add_0_17" depart="1" from="E34" to="-120299208" />
  <trip id="t_t_add_0_18" depart="1" from="E34" to="473980297#0" />
  <trip id="t_t_add_0_19" depart="1" from="E34" to="-88220735#3" />
  <trip id="t_t_add_0_20" depart="1" from="E34" to="-89169690#1" />
  <trip id="t_t_add_0_21" depart="1" from="E34" to="-76017711#2" />
  <trip id="t_t_add_0_22" depart="1" from="E34" to="-186773844#1" />
  <trip id="t_t_add_0_23" depart="1" from="E34" to="138706882#18" />
  <trip id="t_t_add_0_24" depart="1" from="E34" to="314943855#1" />
  <trip id="t_t_add_0_25" depart="1" from="E34" to="123548209#1" />
  <trip id="t_t_add_0_26" depart="1" from="E34" to="-865554622#1" />
  <trip id="t_t_add_0_27" depart="1" from="E34" to="-120299485#0" />
  <trip id="t_t_add_0_28" depart="1" from="E34" to="-701459801#0" />
  <trip id="t_t_add_0_29" depart="1" from="E34" to="-120298274#9" />
  <trip id="t_t_add_0_30" depart="1" from="E34" to="-123548376#15" />
  <trip id="t_t_add_0_31" depart="1" from="E34" to="671221355#1" />
  <trip id="t_t_add_0_32" depart="1" from="E34" to="120304516#1" />
  <trip id="t_t_add_0_33" depart="1" from="E34" to="-314943854#1" />
  <trip id="t_t_add_0_34" depart="1" from="E34" to="-135978799#1" />
  <trip id="t_t_add_0_35" depart="1" from="E34" to="-124771681#0" />
  <trip id="t_t_add_0_36" depart="1" from="E34" to="579798177#2" />
  <trip id="t_t_add_0_37" depart="1" from="E34" to="-120299508#7" />
  <trip id="t_t_add_0_38" depart="1" from="E34" to="702075319#0" />
  <trip id="t_t_add_0_39" depart="1" from="E34" to="-41246378#6" />
  <trip id="t_t_add_0_40" depart="1" from="E34" to="-608478145#10" />
  <trip id="t_t_add_0_41" depart="1" from="E34" to="80094278#3" />
  <trip id="t_t_add_0_42" depart="1" from="E34" to="-120298428" />
  <trip id="t_t_add_0_43" depart="1" from="E34" to="816248542" />
  <trip id="t_t_add_0_44" depart="1" from="E34" to="-480972622#0" />
  <trip id="t_t_add_0_45" depart="1" from="E34" to="123537456#0" />
  <trip id="t_t_add_0_46" depart="1" from="E34" to="120298048#2" />
  <trip id="t_t_add_0_47" depart="1" from="E34" to="-307589567#0" />
  <trip id="t_t_add_0_48" depart="1" from="E34" to="387512189#2" />
  <trip id="t_t_add_0_49" depart="1" from="E34" to="-192389541" />
  <trip id="t_t_add_0_50" depart="1" from="E34" to="390426986#3" />
  <trip id="t_t_add_0_51" depart="1" from="E34" to="120298862#0" />
  <trip id="t_t_add_0_52" depart="1" from="E34" to="475877474#1" />
  <trip id="t_t_add_0_53" depart="1" from="E34" to="120299377#1" />
  <trip id="t_t_add_0_54" depart="1" from="E34" to="123548581#6" />
  <trip id="t_t_add_0_55" depart="1" from="E34" to="1131138653#1" />
  <trip id="t_t_add_0_56" depart="1" from="E34" to="475871177#0" />
  <trip id="t_t_add_0_57" depart="1" from="E34" to="-844516886#0" />
  <trip id="t_t_add_0_58" depart="1" from="E34" to="601450452" />
  <trip id="t_t_add_0_59" depart="1" from="E34" to="482847367#0" />
  <trip id="t_t_add_0_60" depart="1" from="E34" to="613199071#0" />
  <trip id="t_t_add_0_61" depart="1" from="E34" to="-102422736#7" />
  <trip id="t_t_add_0_62" depart="1" from="E34" to="732034641#2" />
  <trip id="t_t_add_0_63" depart="1" from="E34" to="290523811" />
  <trip id="t_t_add_0_64" depart="1" from="E34" to="589353013#0" />
  <trip id="t_t_add_0_65" depart="1" from="E34" to="1153637280" />
  <trip id="t_t_add_0_66" depart="1" from="E34" to="-700857346" />
  <trip id="t_t_add_0_67" depart="1" from="E34" to="138672795#1" />
  <trip id="t_t_add_0_68" depart="1" from="E34" to="1185697576#1" />
  <trip id="t_t_add_0_69" depart="1" from="E34" to="579776898#5" />
  <trip id="t_t_add_0_70" depart="1" from="E34" to="88221897#4" />
  <trip id="t_t_add_0_71" depart="1" from="E34" to="-481955947" />
  <trip id="t_t_add_0_72" depart="1" from="E34" to="362896330" />
  <trip id="t_t_add_0_73" depart="1" from="E34" to="-724861092#2" />
  <trip id="t_t_add_0_74" depart="1" from="E34" to="-128185913" />
  <trip id="t_t_add_0_75" depart="1" from="E34" to="-171012982#4" />
  <trip id="t_t_add_0_76" depart="1" from="E34" to="128186223#5" />
  <trip id="t_t_add_0_77" depart="1" from="E34" to="-120304796#1" />
  <trip id="t_t_add_0_78" depart="1" from="E34" to="331477839#0" />
  <trip id="t_t_add_0_79" depart="1" from="E34" to="354970512#1" />
  <trip id="t_t_add_0_80" depart="1" from="E34" to="186584300#4" />
  <trip id="t_t_add_0_81" depart="1" from="E34" to="-471342837" />
  <trip id="t_t_add_0_82" depart="1" from="E34" to="672436115#2" />
  <trip id="t_t_add_0_83" depart="1" from="E34" to="-475871277" />
  <trip id="t_t_add_0_84" depart="1" from="E34" to="868477210#0" />
  <trip id="t_t_add_0_85" depart="1" from="E34" to="192389519#0" />
  <trip id="t_t_add_0_86" depart="1" from="E34" to="75946082#2" />
  <trip id="t_t_add_0_87" depart="1" from="E34" to="188163795#0" />
  <trip id="t_t_add_0_88" depart="1" from="E34" to="-120304796#0" />
  <trip id="t_t_add_0_89" depart="1" from="E34" to="-672785090#3" />
  <trip id="t_t_add_0_90" depart="1" from="E34" to="854402761" />
  <trip id="t_t_add_0_91" depart="1" from="E34" to="-76202984#1" />
  <trip id="t_t_add_0_92" depart="1" from="E34" to="728155543#3" />
  <trip id="t_t_add_0_93" depart="1" from="E34" to="-1149330474#2" />
  <trip id="t_t_add_0_94" depart="1" from="E34" to="-859959620#15" />
  <trip id="t_t_add_0_95" depart="1" from="E34" to="-102422774#9" />
  <trip id="t_t_add_0_96" depart="1" from="E34" to="1107380989" />
  <trip id="t_t_add_0_97" depart="1" from="E34" to="-120298637#1" />
  <trip id="t_t_add_0_98" depart="1" from="E34" to="-698601613#0" />
  <trip id="t_t_add_0_99" depart="1" from="E34" to="1084077576#1" />
  <trip id="t_t_add_0_100" depart="1" from="E34" to="-686448907" />
  <trip id="t_t_add_0_101" depart="1" from="E34" to="28186167#5" />
  <trip id="t_t_add_0_102" depart="1" from="E34" to="-138422675#0" />
  <trip id="t_t_add_0_103" depart="1" from="E34" to="701459773" />
  <trip id="t_t_add_0_104" depart="1" from="E34" to="447675884#1" />
  <trip id="t_t_add_0_105" depart="1" from="E34" to="128191392#1" />
  <trip id="t_t_add_0_106" depart="1" from="E34" to="80098243#4" />
  <trip id="t_t_add_0_107" depart="1" from="E34" to="-483048365" />
  <trip id="t_t_add_0_108" depart="1" from="E34" to="475350796#1" />
  <trip id="t_t_add_0_109" depart="1" from="E34" to="387621105#4" />
  <trip id="t_t_add_0_110" depart="1" from="E34" to="-128191282" />
  <trip id="t_t_add_0_111" depart="1" from="E34" to="732034648" />
  <trip id="t_t_add_0_112" depart="1" from="E34" to="-458407877#1" />
  <trip id="t_t_add_0_113" depart="1" from="E34" to="123548291#0" />
  <trip id="t_t_add_0_114" depart="1" from="E34" to="-672789341#4" />
  <trip id="t_t_add_0_115" depart="1" from="E34" to="124896288#2" />
  <trip id="t_t_add_0_116" depart="1" from="E34" to="943251264#2" />
  <trip id="t_t_add_0_117" depart="1" from="E34" to="672283702#0" />
  <trip id="t_t_add_0_118" depart="1" from="E34" to="128187706#6" />
  <trip id="t_t_add_0_119" depart="1" from="E34" to="581624581#21" />
  <trip id="t_t_add_0_120" depart="1" from="E34" to="762543237" />
  <trip id="t_t_add_0_121" depart="1" from="E34" to="188332287" />
  <trip id="t_t_add_0_122" depart="1" from="E34" to="-120299214#5" />
  <trip id="t_t_add_0_123" depart="1" from="E34" to="71889036#4" />
  <trip id="t_t_add_0_124" depart="1" from="E34" to="-123548514#0" />
  <trip id="t_t_add_0_125" depart="1" from="E34" to="80091729#1" />
  <trip id="t_t_add_0_126" depart="1" from="E34" to="-614370095#0" />
  <trip id="t_t_add_0_127" depart="1" from="E34" to="120298066#0" />
  <trip id="t_t_add_0_128" depart="1" from="E34" to="-186773840#1" />
  <trip id="t_t_add_0_129" depart="1" from="E34" to="75036074#3" />
  <trip id="t_t_add_0_130" depart="1" from="E34" to="120299453#3" />
  <trip id="t_t_add_0_131" depart="1" from="E34" to="-123537526#0" />
  <trip id="t_t_add_0_132" depart="1" from="E34" to="-71881089#1" />
  <trip id="t_t_add_0_133" depart="1" from="E34" to="307293632#2" />
  <trip id="t_t_add_0_134" depart="1" from="E34" to="186584209#0" />
  <trip id="t_t_add_0_135" depart="1" from="E34" to="-581624581#22" />
  <trip id="t_t_add_0_136" depart="1" from="E34" to="169920373#6" />
  <trip id="t_t_add_0_137" depart="1" from="E34" to="120299478" />
  <trip id="t_t_add_0_138" depart="1" from="E34" to="76951165#2" />
  <trip id="t_t_add_0_139" depart="1" from="E34" to="-701459801#0" />
  <trip id="t_t_add_0_140" depart="1" from="E34" to="-681790119#0" />
  <trip id="t_t_add_0_141" depart="1" from="E34" to="162941921#3" />
  <trip id="t_t_add_0_142" depart="1" from="E34" to="-1159532039#1" />
  <trip id="t_t_add_0_143" depart="1" from="E34" to="-849787175#40" />
  <trip id="t_t_add_0_144" depart="1" from="E34" to="-701459776#1" />
  <trip id="t_t_add_0_145" depart="1" from="E34" to="619911283#0" />
  <trip id="t_t_add_0_146" depart="1" from="E34" to="602074932#5" />
  <trip id="t_t_add_0_147" depart="1" from="E34" to="-1149399104#0" />
  <trip id="t_t_add_0_148" depart="1" from="E34" to="354970512#16" />
  <trip id="t_t_add_0_149" depart="1" from="E34" to="120299214#3" />
  <trip id="t_t_add_0_150" depart="1" from="E34" to="-700857357#5" />
  <trip id="t_t_add_0_151" depart="1" from="E34" to="-81050139#7" />
  <trip id="t_t_add_0_152" depart="1" from="E34" to="-28186167#17" />
  <trip id="t_t_add_0_153" depart="1" from="E34" to="192389495#1" />
  <trip id="t_t_add_0_154" depart="1" from="E34" to="482844484#0" />
  <trip id="t_t_add_0_155" depart="1" from="E34" to="-138422634#2" />
  <trip id="t_t_add_0_156" depart="1" from="E34" to="458740957#1" />
  <trip id="t_t_add_0_157" depart="1" from="E34" to="192430639#0" />
  <trip id="t_t_add_0_158" depart="1" from="E34" to="579798177#11" />
  <trip id="t_t_add_0_159" depart="1" from="E34" to="78131954" />
  <trip id="t_t_add_0_160" depart="1" from="E34" to="314944600" />
  <trip id="t_t_add_0_161" depart="1" from="E34" to="75947015" />
  <trip id="t_t_add_0_162" depart="1" from="E34" to="681808728#1" />
  <trip id="t_t_add_0_163" depart="1" from="E34" to="120305616#2" />
  <trip id="t_t_add_0_164" depart="1" from="E34" to="120305501#2" />
  <trip id="t_t_add_0_165" depart="1" from="E34" to="475877693#0" />
  <trip id="t_t_add_0_166" depart="1" from="E34" to="-732058033" />
  <trip id="t_t_add_0_167" depart="1" from="E34" to="-674909587" />
  <trip id="t_t_add_0_168" depart="1" from="E34" to="-471343823#1" />
  <trip id="t_t_add_0_169" depart="1" from="E34" to="717464046#14" />
  <trip id="t_t_add_0_170" depart="1" from="E34" to="-608482215#4" />
  <trip id="t_t_add_0_171" depart="1" from="E34" to="-124771693#1" />
  <trip id="t_t_add_0_172" depart="1" from="E34" to="-702200555" />
  <trip id="t_t_add_0_173" depart="1" from="E34" to="-162359755" />
  <trip id="t_t_add_0_174" depart="1" from="E34" to="-136400043#5" />
  <trip id="t_t_add_0_175" depart="1" from="E34" to="81050330" />
  <trip id="t_t_add_0_176" depart="1" from="E34" to="-188332295#1" />
  <trip id="t_t_add_0_177" depart="1" from="E34" to="241744473#0" />
  <trip id="t_t_add_0_178" depart="1" from="E34" to="-128191294#0" />
  <trip id="t_t_add_0_179" depart="1" from="E34" to="-88221899#3" />
  <trip id="t_t_add_0_180" depart="1" from="E34" to="-120298699#3" />
  <trip id="t_t_add_0_181" depart="1" from="E34" to="120299345#2" />
  <trip id="t_t_add_0_182" depart="1" from="E34" to="-77870918" />
  <trip id="t_t_add_0_183" depart="1" from="E34" to="671196163" />
  <trip id="t_t_add_0_184" depart="1" from="E34" to="192389506#1" />
  <trip id="t_t_add_0_185" depart="1" from="E34" to="57885323#4" />
  <trip id="t_t_add_0_186" depart="1" from="E34" to="229356136" />
  <trip id="t_t_add_0_187" depart="1" from="E34" to="-672436116" />
  <trip id="t_t_add_0_188" depart="1" from="E34" to="314944653#9" />
  <trip id="t_t_add_0_189" depart="1" from="E34" to="1181763422#0" />
  <trip id="t_t_add_0_190" depart="1" from="E34" to="102422666#1" />
  <trip id="t_t_add_0_191" depart="1" from="E34" to="-603941432" />
  <trip id="t_t_add_0_192" depart="1" from="E34" to="-291906461#6" />
  <trip id="t_t_add_0_193" depart="1" from="E34" to="362894303#0" />
  <trip id="t_t_add_0_194" depart="1" from="E34" to="672267599" />
  <trip id="t_t_add_0_195" depart="1" from="E34" to="579776897#8" />
  <trip id="t_t_add_0_196" depart="1" from="E34" to="34122877#0" />
  <trip id="t_t_add_0_197" depart="1" from="E34" to="-681600143#3" />
  <trip id="t_t_add_0_198" depart="1" from="E34" to="-700857357#4" />
  <trip id="t_t_add_0_199" depart="1" from="E34" to="-579771580" />
  <trip id="t_t_add_0_200" depart="1" from="E34" to="128189012#1" />
  <trip id="t_t_add_0_201" depart="1" from="E34" to="102422715#4" />
  <trip id="t_t_add_0_202" depart="1" from="E34" to="-128186268#9" />
  <trip id="t_t_add_0_203" depart="1" from="E34" to="-186584126#0" />
  <trip id="t_t_add_0_204" depart="1" from="E34" to="120298834" />
  <trip id="t_t_add_0_205" depart="1" from="E34" to="372542613#1" />
  <trip id="t_t_add_0_206" depart="1" from="E34" to="-128186029" />
  <trip id="t_t_add_0_207" depart="1" from="E34" to="744335952#1" />
  <trip id="t_t_add_0_208" depart="1" from="E34" to="88221897#10" />
  <trip id="t_t_add_0_209" depart="1" from="E34" to="-80094278#3" />
  <trip id="t_t_add_0_210" depart="1" from="E34" to="-128191188#1" />
  <trip id="t_t_add_0_211" depart="1" from="E34" to="1188395723#3" />
  <trip id="t_t_add_0_212" depart="1" from="E34" to="598304825#1" />
  <trip id="t_t_add_0_213" depart="1" from="E34" to="702088262#1" />
  <trip id="t_t_add_0_214" depart="1" from="E34" to="120298763" />
  <trip id="t_t_add_0_215" depart="1" from="E34" to="581890554#1" />
  <trip id="t_t_add_0_216" depart="1" from="E34" to="87961511#0" />
  <trip id="t_t_add_0_217" depart="1" from="E34" to="-188332305#1" />
  <trip id="t_t_add_0_218" depart="1" from="E34" to="906742864#2" />
  <trip id="t_t_add_0_219" depart="1" from="E34" to="-124771659#1" />
  <trip id="t_t_add_0_220" depart="1" from="E34" to="1025211955#0" />
  <trip id="t_t_add_0_221" depart="1" from="E34" to="-128186214#4" />
  <trip id="t_t_add_0_222" depart="1" from="E34" to="-1189135990#3" />
  <trip id="t_t_add_0_223" depart="1" from="E34" to="-717470852#4" />
  <trip id="t_t_add_0_224" depart="1" from="E34" to="-617896250#1" />
  <trip id="t_t_add_0_225" depart="1" from="E34" to="89169689#0" />
  <trip id="t_t_add_0_226" depart="1" from="E34" to="674176869" />
  <trip id="t_t_add_0_227" depart="1" from="E34" to="-672435240#1" />
  <trip id="t_t_add_0_228" depart="1" from="E34" to="-138689062#0" />
  <trip id="t_t_add_0_229" depart="1" from="E34" to="810512777" />
  <trip id="t_t_add_0_230" depart="1" from="E34" to="-124771689#3" />
  <trip id="t_t_add_0_231" depart="1" from="E34" to="-135978746#1" />
  <trip id="t_t_add_0_232" depart="1" from="E34" to="717457884#4" />
  <trip id="t_t_add_0_233" depart="1" from="E34" to="-146578040#0" />
  <trip id="t_t_add_0_234" depart="1" from="E34" to="387652540#0" />
  <trip id="t_t_add_0_235" depart="1" from="E34" to="260042790#3" />
  <trip id="t_t_add_0_236" depart="1" from="E34" to="-708216474" />
  <trip id="t_t_add_0_237" depart="1" from="E34" to="475871140" />
  <trip id="t_t_add_0_238" depart="1" from="E34" to="482711256#2" />
  <trip id="t_t_add_0_239" depart="1" from="E34" to="592893851#0" />
  <trip id="t_t_add_0_240" depart="1" from="E34" to="-682020380#3" />
  <trip id="t_t_add_0_241" depart="1" from="E34" to="393173640" />
  <trip id="t_t_add_0_242" depart="1" from="E34" to="587986824#1" />
  <trip id="t_t_add_0_243" depart="1" from="E34" to="-124772221#0" />
  <trip id="t_t_add_0_244" depart="1" from="E34" to="120299559#0" />
  <trip id="t_t_add_0_245" depart="1" from="E34" to="-476113921#1" />
  <trip id="t_t_add_0_246" depart="1" from="E34" to="684372535#5" />
  <trip id="t_t_add_0_247" depart="1" from="E34" to="120299595#0" />
  <trip id="t_t_add_0_248" depart="1" from="E34" to="-124896280#1" />
  <trip id="t_t_add_0_249" depart="1" from="E34" to="785682926#4" />
  <trip id="t_t_add_0_250" depart="1" from="E34" to="-598344561#3" />
  <trip id="t_t_add_0_251" depart="1" from="E34" to="72414559#3" />
  <trip id="t_t_add_0_252" depart="1" from="E34" to="-81050162#16" />
  <trip id="t_t_add_0_253" depart="1" from="E34" to="-120298502" />
  <trip id="t_t_add_0_254" depart="1" from="E34" to="-476109957#12" />
  <trip id="t_t_add_0_255" depart="1" from="E34" to="476113929#0" />
  <trip id="t_t_add_0_256" depart="1" from="E34" to="120305358#1" />
  <trip id="t_t_add_0_257" depart="1" from="E34" to="-448274976#7" />
  <trip id="t_t_add_0_258" depart="1" from="E34" to="-120299675#0" />
  <trip id="t_t_add_0_259" depart="1" from="E34" to="1082821707#1" />
  <trip id="t_t_add_0_260" depart="1" from="E34" to="135978801#3" />
  <trip id="t_t_add_0_261" depart="1" from="E34" to="-619945682#1" />
  <trip id="t_t_add_0_262" depart="1" from="E34" to="136400035#2" />
  <trip id="t_t_add_0_263" depart="1" from="E34" to="475871177#2" />
  <trip id="t_t_add_0_264" depart="1" from="E34" to="481955953#0" />
  <trip id="t_t_add_0_265" depart="1" from="E34" to="169920405#8" />
  <trip id="t_t_add_0_266" depart="1" from="E34" to="1084077565#2" />
  <trip id="t_t_add_0_267" depart="1" from="E34" to="128182555" />
  <trip id="t_t_add_0_268" depart="1" from="E34" to="871540735" />
  <trip id="t_t_add_0_269" depart="1" from="E34" to="943251255#24" />
  <trip id="t_t_add_0_270" depart="1" from="E34" to="102422809#5" />
  <trip id="t_t_add_0_271" depart="1" from="E34" to="-266568232" />
  <trip id="t_t_add_0_272" depart="1" from="E34" to="1149402057#4" />
  <trip id="t_t_add_0_273" depart="1" from="E34" to="-120298147#1" />
  <trip id="t_t_add_0_274" depart="1" from="E34" to="-135978786#1" />
  <trip id="t_t_add_0_275" depart="1" from="E34" to="-700857277#5" />
  <trip id="t_t_add_0_276" depart="1" from="E34" to="-354970512#10" />
  <trip id="t_t_add_0_277" depart="1" from="E34" to="-120299452#0" />
  <trip id="t_t_add_0_278" depart="1" from="E34" to="472274876" />
  <trip id="t_t_add_0_279" depart="1" from="E34" to="120298701#6" />
  <trip id="t_t_add_0_280" depart="1" from="E34" to="128182502#9" />
  <trip id="t_t_add_0_281" depart="1" from="E34" to="484908832#1" />
  <trip id="t_t_add_0_282" depart="1" from="E34" to="732836010#3" />
  <trip id="t_t_add_0_283" depart="1" from="E34" to="-241743552#1" />
  <trip id="t_t_add_0_284" depart="1" from="E34" to="156179632#1" />
  <trip id="t_t_add_0_285" depart="1" from="E34" to="-724858545#2" />
  <trip id="t_t_add_0_286" depart="1" from="E34" to="-859959620#8" />
  <trip id="t_t_add_0_287" depart="1" from="E34" to="-700857331#3" />
  <trip id="t_t_add_0_288" depart="1" from="E34" to="169920369#6" />
  <trip id="t_t_add_0_289" depart="1" from="E34" to="-700857268#1" />
  <trip id="t_t_add_0_290" depart="1" from="E34" to="-475877471" />
  <trip id="t_t_add_0_291" depart="1" from="E34" to="-728236303" />
  <trip id="t_t_add_0_292" depart="1" from="E34" to="-120304588#2" />
  <trip id="t_t_add_0_293" depart="1" from="E34" to="-81050206#3" />
  <trip id="t_t_add_0_294" depart="1" from="E34" to="372153686#1" />
  <trip id="t_t_add_0_295" depart="1" from="E34" to="120298200#13" />
  <trip id="t_t_add_0_296" depart="1" from="E34" to="472274774" />
  <trip id="t_t_add_0_297" depart="1" from="E34" to="120299657" />
  <trip id="t_t_add_0_298" depart="1" from="E34" to="128185943#0" />
  <trip id="t_t_add_0_299" depart="1" from="E34" to="-472274869#6" />
  <trip id="t_t_add_0_300" depart="1" from="E34" to="475871290" />
  <trip id="t_t_add_0_301" depart="1" from="E34" to="476113923#0" />
  <trip id="t_t_add_0_302" depart="1" from="E34" to="1088421114#2" />
  <trip id="t_t_add_0_303" depart="1" from="E34" to="-128189008" />
  <trip id="t_t_add_0_304" depart="1" from="E34" to="-123548320" />
  <trip id="t_t_add_0_305" depart="1" from="E34" to="211445652#4" />
  <trip id="t_t_add_0_306" depart="1" from="E34" to="-701459780#0" />
  <trip id="t_t_add_0_307" depart="1" from="E34" to="102422747#7" />
  <trip id="t_t_add_0_308" depart="1" from="E34" to="-217298373" />
  <trip id="t_t_add_0_309" depart="1" from="E34" to="314943856#8" />
  <trip id="t_t_add_0_310" depart="1" from="E34" to="-171012987#0" />
  <trip id="t_t_add_0_311" depart="1" from="E34" to="372542616#1" />
  <trip id="t_t_add_0_312" depart="1" from="E34" to="-785284811#1" />
  <trip id="t_t_add_0_313" depart="1" from="E34" to="81050179#1" />
  <trip id="t_t_add_0_314" depart="1" from="E34" to="-579780436#0" />
  <trip id="t_t_add_0_315" depart="1" from="E34" to="-102422640#0" />
  <trip id="t_t_add_0_316" depart="1" from="E34" to="-603940285" />
  <trip id="t_t_add_0_317" depart="1" from="E34" to="-671196165#2" />
  <trip id="t_t_add_0_318" depart="1" from="E34" to="-120304592#0" />
  <trip id="t_t_add_0_319" depart="1" from="E34" to="124772218#0" />
  <trip id="t_t_add_0_320" depart="1" from="E34" to="241743558#6" />
  <trip id="t_t_add_0_321" depart="1" from="E34" to="32124116#3" />
  <trip id="t_t_add_0_322" depart="1" from="E34" to="87961560#1" />
  <trip id="t_t_add_0_323" depart="1" from="E34" to="372153676#5" />
  <trip id="t_t_add_0_324" depart="1" from="E34" to="241743664#1" />
  <trip id="t_t_add_0_325" depart="1" from="E34" to="-674179653" />
  <trip id="t_t_add_0_326" depart="1" from="E34" to="240890092#2" />
  <trip id="t_t_add_0_327" depart="1" from="E34" to="-217298362#4" />
  <trip id="t_t_add_0_328" depart="1" from="E34" to="-81050332" />
  <trip id="t_t_add_0_329" depart="1" from="E34" to="589353013#3" />
  <trip id="t_t_add_0_330" depart="1" from="E34" to="-647137956" />
  <trip id="t_t_add_0_331" depart="1" from="E34" to="-186584283#5" />
  <trip id="t_t_add_0_332" depart="1" from="E34" to="120299126#4" />
  <trip id="t_t_add_0_333" depart="1" from="E34" to="124896250" />
  <trip id="t_t_add_0_334" depart="1" from="E34" to="681808726#8" />
  <trip id="t_t_add_0_335" depart="1" from="E34" to="-671388840" />
  <trip id="t_t_add_0_336" depart="1" from="E34" to="128186268#2" />
  <trip id="t_t_add_0_337" depart="1" from="E34" to="482844487#1" />
  <trip id="t_t_add_0_338" depart="1" from="E34" to="471342786" />
  <trip id="t_t_add_0_339" depart="1" from="E34" to="-124772233#1" />
  <trip id="t_t_add_0_340" depart="1" from="E34" to="89169687#1" />
  <trip id="t_t_add_0_341" depart="1" from="E34" to="701718693" />
  <trip id="t_t_add_0_342" depart="1" from="E34" to="567982398#9" />
  <trip id="t_t_add_0_343" depart="1" from="E34" to="-475877452" />
  <trip id="t_t_add_0_344" depart="1" from="E34" to="351768792#3" />
  <trip id="t_t_add_0_345" depart="1" from="E34" to="390426987#1" />
  <trip id="t_t_add_0_346" depart="1" from="E34" to="87961528#5" />
  <trip id="t_t_add_0_347" depart="1" from="E34" to="-732835972#15" />
  <trip id="t_t_add_0_348" depart="1" from="E34" to="102422736#0" />
  <trip id="t_t_add_0_349" depart="1" from="E34" to="188163200#1" />
  <trip id="t_t_add_0_350" depart="1" from="E34" to="-123552878#0" />
  <trip id="t_t_add_0_351" depart="1" from="E34" to="-1184585980#1" />
  <trip id="t_t_add_0_352" depart="1" from="E34" to="672785162#1" />
  <trip id="t_t_add_0_353" depart="1" from="E34" to="-564630203#5" />
  <trip id="t_t_add_0_354" depart="1" from="E34" to="-266566455#3" />
  <trip id="t_t_add_0_355" depart="1" from="E34" to="-475877710" />
  <trip id="t_t_add_0_356" depart="1" from="E34" to="102422666#4" />
  <trip id="t_t_add_0_357" depart="1" from="E34" to="-619910765#2" />
  <trip id="t_t_add_0_358" depart="1" from="E34" to="-628778963#3" />
  <trip id="t_t_add_0_359" depart="1" from="E34" to="-623770607#3" />
  <trip id="t_t_add_0_360" depart="1" from="E34" to="-865554623#2" />
  <trip id="t_t_add_0_361" depart="1" from="E34" to="1184574385#2" />
  <trip id="t_t_add_0_362" depart="1" from="E34" to="102422675#8" />
  <trip id="t_t_add_0_363" depart="1" from="E34" to="124771681#7" />
  <trip id="t_t_add_0_364" depart="1" from="E34" to="120304555" />
  <trip id="t_t_add_0_365" depart="1" from="E34" to="1132771154" />
  <trip id="t_t_add_0_366" depart="1" from="E34" to="66993592#2" />
  <trip id="t_t_add_0_367" depart="1" from="E34" to="75946103#4" />
  <trip id="t_t_add_0_368" depart="1" from="E34" to="608478143#0" />
  <trip id="t_t_add_0_369" depart="1" from="E34" to="1064542890#2" />
  <trip id="t_t_add_0_370" depart="1" from="E34" to="120299377#0" />
  <trip id="t_t_add_0_371" depart="1" from="E34" to="732835998#4" />
  <trip id="t_t_add_0_372" depart="1" from="E34" to="128186159#1" />
  <trip id="t_t_add_0_373" depart="1" from="E34" to="266566455#1" />
  <trip id="t_t_add_0_374" depart="1" from="E34" to="-674181716#3" />
  <trip id="t_t_add_0_375" depart="1" from="E34" to="-120298622#2" />
  <trip id="t_t_add_0_376" depart="1" from="E34" to="123548131#3" />
  <trip id="t_t_add_0_377" depart="1" from="E34" to="120304816#4" />
  <trip id="t_t_add_0_378" depart="1" from="E34" to="-685042513" />
  <trip id="t_t_add_0_379" depart="1" from="E34" to="-1110676194" />
  <trip id="t_t_add_0_380" depart="1" from="E34" to="-162173955#1" />
  <trip id="t_t_add_0_381" depart="1" from="E34" to="-387621117#22" />
  <trip id="t_t_add_0_382" depart="1" from="E34" to="-717476242#1" />
  <trip id="t_t_add_0_383" depart="1" from="E34" to="726046578" />
  <trip id="t_t_add_0_384" depart="1" from="E34" to="128186166#1" />
  <trip id="t_t_add_0_385" depart="1" from="E34" to="-136369217#13" />
  <trip id="t_t_add_0_386" depart="1" from="E34" to="-138706387#1" />
  <trip id="t_t_add_0_387" depart="1" from="E34" to="475494179#2" />
  <trip id="t_t_add_0_388" depart="1" from="E34" to="-675349672#2" />
  <trip id="t_t_add_0_389" depart="1" from="E34" to="102422762#2" />
  <trip id="t_t_add_0_390" depart="1" from="E34" to="123552785" />
  <trip id="t_t_add_0_391" depart="1" from="E34" to="-77075869#1" />
  <trip id="t_t_add_0_392" depart="1" from="E34" to="-614351858#3" />
  <trip id="t_t_add_0_393" depart="1" from="E34" to="-471342826#5" />
  <trip id="t_t_add_0_394" depart="1" from="E34" to="-120298015#0" />
  <trip id="t_t_add_0_395" depart="1" from="E34" to="473980302" />
  <trip id="t_t_add_0_396" depart="1" from="E34" to="-260868055#2" />
  <trip id="t_t_add_0_397" depart="1" from="E34" to="-203875780#3" />
  <trip id="t_t_add_0_398" depart="1" from="E34" to="-120305288#2" />
  <trip id="t_t_add_0_399" depart="1" from="E34" to="458407787" />
  <trip id="t_t_add_0_400" depart="1" from="E34" to="-472274826#25" />
  <trip id="t_t_add_0_401" depart="1" from="E34" to="-138422628#3" />
  <trip id="t_t_add_0_402" depart="1" from="E34" to="472274826#8" />
  <trip id="t_t_add_0_403" depart="1" from="E34" to="128191346#0" />
  <trip id="t_t_add_0_404" depart="1" from="E34" to="-120298661#2" />
  <trip id="t_t_add_0_405" depart="1" from="E34" to="-120304920#6" />
  <trip id="t_t_add_0_406" depart="1" from="E34" to="136369219#7" />
  <trip id="t_t_add_0_407" depart="1" from="E34" to="124771684#2" />
  <trip id="t_t_add_0_408" depart="1" from="E34" to="192430655#9" />
  <trip id="t_t_add_0_409" depart="1" from="E34" to="633922811#5" />
  <trip id="t_t_add_0_410" depart="1" from="E34" to="868040124#0" />
  <trip id="t_t_add_0_411" depart="1" from="E34" to="456484926#0" />
  <trip id="t_t_add_0_412" depart="1" from="E34" to="128186055" />
  <trip id="t_t_add_0_413" depart="1" from="E34" to="-76951165#4" />
  <trip id="t_t_add_0_414" depart="1" from="E34" to="-483168384#1" />
  <trip id="t_t_add_0_415" depart="1" from="E34" to="1185697578#3" />
  <trip id="t_t_add_0_416" depart="1" from="E34" to="849752651#2" />
  <trip id="t_t_add_0_417" depart="1" from="E34" to="732086656" />
  <trip id="t_t_add_0_418" depart="1" from="E34" to="-785682930" />
  <trip id="t_t_add_0_419" depart="1" from="E34" to="581880714" />
  <trip id="t_t_add_0_420" depart="1" from="E34" to="-135978786#2" />
  <trip id="t_t_add_0_421" depart="1" from="E34" to="1183634774" />
  <trip id="t_t_add_0_422" depart="1" from="E34" to="136400038#0" />
  <trip id="t_t_add_0_423" depart="1" from="E34" to="219661352#1" />
  <trip id="t_t_add_0_424" depart="1" from="E34" to="-192430649#2" />
  <trip id="t_t_add_0_425" depart="1" from="E34" to="376675895#5" />
  <trip id="t_t_add_0_426" depart="1" from="E34" to="-186584109#2" />
  <trip id="t_t_add_0_427" depart="1" from="E34" to="484311098" />
  <trip id="t_t_add_0_428" depart="1" from="E34" to="1174715510#1" />
  <trip id="t_t_add_0_429" depart="1" from="E34" to="288081710#6" />
  <trip id="t_t_add_0_430" depart="1" from="E34" to="138706882#6" />
  <trip id="t_t_add_0_431" depart="1" from="E34" to="860039506#5" />
  <trip id="t_t_add_0_432" depart="1" from="E34" to="-120299146" />
  <trip id="t_t_add_0_433" depart="1" from="E34" to="491625694#1" />
  <trip id="t_t_add_0_434" depart="1" from="E34" to="-186584215#0" />